xflr5 v6.61

 Calculated polar for: CLARK Y AIRFOIL

 1 1 Reynolds number fixed          Mach number fixed         

 xtrf =   1.000 (top)        1.000 (bottom)
 Mach =   0.000     Re =     2.392 e 6     Ncrit =   9.000

  alpha     CL        CD       CDp       Cm    Top Xtr Bot Xtr   Cpmin    Chinge    XCp    
 ------- -------- --------- --------- -------- ------- ------- -------- --------- ---------
  -6.000  -0.2730   0.00845   0.00366  -0.0845  0.8132  0.0239  -3.2468   0.0000   0.0000   0.0000  -0.0716
  -5.900  -0.2622   0.00833   0.00352  -0.0844  0.8086  0.0239  -3.1971   0.0000   0.0000   0.0000  -0.0841
  -5.800  -0.2515   0.00823   0.00338  -0.0842  0.8040  0.0239  -3.1474   0.0000   0.0000   0.0000  -0.0976
  -5.700  -0.2407   0.00814   0.00325  -0.0841  0.7998  0.0239  -3.0976   0.0000   0.0000   0.0000  -0.1124
  -5.600  -0.2296   0.00803   0.00312  -0.0841  0.7970  0.0240  -3.0469   0.0000   0.0000   0.0000  -0.1294
  -5.500  -0.2185   0.00793   0.00300  -0.0841  0.7935  0.0240  -2.9963   0.0000   0.0000   0.0000  -0.1480
  -5.400  -0.2076   0.00784   0.00289  -0.0840  0.7897  0.0241  -2.9458   0.0000   0.0000   0.0000  -0.1684
  -5.300  -0.1966   0.00777   0.00278  -0.0839  0.7855  0.0242  -2.8956   0.0000   0.0000   0.0000  -0.1909
  -5.200  -0.1858   0.00770   0.00268  -0.0838  0.7808  0.0243  -2.8457   0.0000   0.0000   0.0000  -0.2157
  -5.100  -0.1746   0.00762   0.00258  -0.0838  0.7776  0.0245  -2.7953   0.0000   0.0000   0.0000  -0.2448
  -5.000  -0.1635   0.00754   0.00248  -0.0838  0.7740  0.0247  -2.7449   0.0000   0.0000   0.0000  -0.2780
  -4.900  -0.1524   0.00748   0.00240  -0.0837  0.7698  0.0249  -2.6947   0.0000   0.0000   0.0000  -0.3156
  -4.800  -0.1414   0.00742   0.00232  -0.0837  0.7655  0.0253  -2.6447   0.0000   0.0000   0.0000  -0.3587
  -4.700  -0.1304   0.00738   0.00225  -0.0836  0.7608  0.0257  -2.5948   0.0000   0.0000   0.0000  -0.4087
  -4.600  -0.1192   0.00732   0.00218  -0.0836  0.7577  0.0262  -2.5438   0.0000   0.0000   0.0000  -0.4703
  -4.500  -0.1079   0.00727   0.00212  -0.0836  0.7545  0.0268  -2.4920   0.0000   0.0000   0.0000  -0.5451
  -4.400  -0.0966   0.00723   0.00208  -0.0836  0.7511  0.0275  -2.4388   0.0000   0.0000   0.0000  -0.6372
  -4.300  -0.0853   0.00721   0.00205  -0.0836  0.7473  0.0281  -2.3840   0.0000   0.0000   0.0000  -0.7529
  -4.200  -0.0742   0.00720   0.00202  -0.0835  0.7432  0.0285  -2.3282   0.0000   0.0000   0.0000  -0.9024
  -4.100  -0.0630   0.00719   0.00200  -0.0835  0.7392  0.0289  -2.2715   0.0000   0.0000   0.0000  -1.1070
  -4.000  -0.0515   0.00717   0.00198  -0.0835  0.7360  0.0291  -2.2142   0.0000   0.0000   0.0000  -1.4073
  -3.900  -0.0402   0.00716   0.00197  -0.0836  0.7319  0.0294  -2.1573   0.0000   0.0000   0.0000  -1.8737
  -3.800  -0.0290   0.00715   0.00196  -0.0835  0.7272  0.0295  -2.1010   0.0000   0.0000   0.0000  -2.6933
  -3.700  -0.0179   0.00716   0.00194  -0.0835  0.7220  0.0296  -2.0454   0.0000   0.0000   0.0000  -4.5154
  -3.600  -0.0065   0.00715   0.00193  -0.0835  0.7182  0.0297  -1.9896   0.0000   0.0000   0.0000  -12.7769
  -3.500   0.0049   0.00713   0.00192  -0.0835  0.7146  0.0298  -1.9342   0.0000   0.0000   0.0000  17.6929
  -3.400   0.0162   0.00713   0.00190  -0.0836  0.7106  0.0299  -1.8796   0.0000   0.0000   0.0000   5.4959
  -3.300   0.0274   0.00712   0.00189  -0.0835  0.7061  0.0299  -1.8259   0.0000   0.0000   0.0000   3.3476
  -3.200   0.0386   0.00713   0.00188  -0.0835  0.7013  0.0300  -1.7730   0.0000   0.0000   0.0000   2.4506
  -3.100   0.0499   0.00711   0.00186  -0.0835  0.6981  0.0300  -1.7202   0.0000   0.0000   0.0000   1.9481
  -3.000   0.0611   0.00702   0.00174  -0.0835  0.6949  0.0305  -1.6761   0.0000   0.0000   0.0000   1.6374
  -2.900   0.0722   0.00696   0.00166  -0.0835  0.6914  0.0309  -1.6301   0.0000   0.0000   0.0000   1.4217
  -2.800   0.0834   0.00692   0.00159  -0.0834  0.6876  0.0312  -1.5836   0.0000   0.0000   0.0000   1.2639
  -2.700   0.0945   0.00688   0.00153  -0.0834  0.6837  0.0315  -1.5370   0.0000   0.0000   0.0000   1.1437
  -2.600   0.1056   0.00685   0.00148  -0.0834  0.6799  0.0317  -1.4904   0.0000   0.0000   0.0000   1.0485
  -2.500   0.1170   0.00681   0.00143  -0.0834  0.6774  0.0320  -1.4435   0.0000   0.0000   0.0000   0.9704
  -2.400   0.1284   0.00678   0.00139  -0.0834  0.6743  0.0322  -1.3968   0.0000   0.0000   0.0000   0.9063
  -2.300   0.1396   0.00675   0.00135  -0.0834  0.6707  0.0324  -1.3506   0.0000   0.0000   0.0000   0.8528
  -2.200   0.1508   0.00673   0.00130  -0.0833  0.6666  0.0326  -1.3049   0.0000   0.0000   0.0000   0.8075
  -2.100   0.1619   0.00672   0.00127  -0.0833  0.6620  0.0327  -1.2597   0.0000   0.0000   0.0000   0.7687
  -2.000   0.1732   0.00669   0.00124  -0.0833  0.6585  0.0329  -1.2144   0.0000   0.0000   0.0000   0.7345
  -1.900   0.1846   0.00667   0.00120  -0.0833  0.6549  0.0331  -1.1694   0.0000   0.0000   0.0000   0.7044
  -1.800   0.1959   0.00665   0.00117  -0.0833  0.6505  0.0333  -1.1250   0.0000   0.0000   0.0000   0.6779
  -1.700   0.2070   0.00665   0.00114  -0.0833  0.6455  0.0335  -1.0812   0.0000   0.0000   0.0000   0.6544
  -1.600   0.2181   0.00665   0.00112  -0.0832  0.6402  0.0336  -1.0380   0.0000   0.0000   0.0000   0.6334
  -1.500   0.2295   0.00662   0.00109  -0.0832  0.6368  0.0338  -0.9945   0.0000   0.0000   0.0000   0.6142
  -1.400   0.2408   0.00661   0.00107  -0.0832  0.6327  0.0341  -0.9516   0.0000   0.0000   0.0000   0.5968
  -1.300   0.2520   0.00660   0.00104  -0.0832  0.6282  0.0343  -0.9094   0.0000   0.0000   0.0000   0.5811
  -1.200   0.2631   0.00660   0.00103  -0.0832  0.6233  0.0346  -0.8678   0.0000   0.0000   0.0000   0.5667
  -1.100   0.2744   0.00660   0.00101  -0.0832  0.6190  0.0349  -0.8265   0.0000   0.0000   0.0000   0.5535
  -1.000   0.2857   0.00658   0.00099  -0.0832  0.6155  0.0353  -0.7855   0.0000   0.0000   0.0000   0.5412
  -0.900   0.2970   0.00657   0.00097  -0.0832  0.6111  0.0359  -0.7452   0.0000   0.0000   0.0000   0.5300
  -0.800   0.3081   0.00657   0.00095  -0.0832  0.6060  0.0366  -0.7056   0.0000   0.0000   0.0000   0.5195
  -0.700   0.3192   0.00658   0.00094  -0.0831  0.6006  0.0376  -0.6777   0.0000   0.0000   0.0000   0.5099
  -0.600   0.3305   0.00656   0.00092  -0.0831  0.5970  0.0390  -0.6882   0.0000   0.0000   0.0000   0.5008
  -0.500   0.3413   0.00646   0.00090  -0.0831  0.5926  0.0576  -0.6984   0.0000   0.0000   0.0000   0.4925
  -0.400   0.3522   0.00639   0.00088  -0.0830  0.5875  0.0799  -0.7085   0.0000   0.0000   0.0000   0.4847
  -0.300   0.3630   0.00637   0.00088  -0.0829  0.5818  0.0936  -0.7188   0.0000   0.0000   0.0000   0.4773
   0.000   0.3956   0.00616   0.00086  -0.0828  0.5680  0.1698  -0.7496   0.0000   0.0000   0.0000   0.4578
   0.100   0.4063   0.00612   0.00087  -0.0828  0.5620  0.1943  -0.7598   0.0000   0.0000   0.0000   0.4520
   0.200   0.4173   0.00608   0.00087  -0.0828  0.5577  0.2148  -0.7703   0.0000   0.0000   0.0000   0.4465
   0.300   0.4283   0.00605   0.00087  -0.0828  0.5530  0.2319  -0.7808   0.0000   0.0000   0.0000   0.4412
   0.400   0.4393   0.00603   0.00088  -0.0827  0.5474  0.2475  -0.7912   0.0000   0.0000   0.0000   0.4362
   0.500   0.4501   0.00604   0.00089  -0.0827  0.5412  0.2619  -0.8016   0.0000   0.0000   0.0000   0.4314
   0.600   0.4612   0.00601   0.00090  -0.0827  0.5369  0.2780  -0.8122   0.0000   0.0000   0.0000   0.4269
   0.700   0.4722   0.00599   0.00091  -0.0826  0.5314  0.2938  -0.8228   0.0000   0.0000   0.0000   0.4226
   0.800   0.4830   0.00600   0.00092  -0.0826  0.5247  0.3098  -0.8332   0.0000   0.0000   0.0000   0.4184
   0.900   0.4938   0.00598   0.00094  -0.0825  0.5185  0.3295  -0.8436   0.0000   0.0000   0.0000   0.4145
   1.000   0.5047   0.00595   0.00095  -0.0825  0.5129  0.3540  -0.8542   0.0000   0.0000   0.0000   0.4107
   1.100   0.5153   0.00592   0.00097  -0.0824  0.5056  0.3825  -0.8645   0.0000   0.0000   0.0000   0.4071
   1.200   0.5258   0.00588   0.00099  -0.0823  0.4987  0.4166  -0.8748   0.0000   0.0000   0.0000   0.4036
   1.300   0.5364   0.00581   0.00101  -0.0823  0.4929  0.4588  -0.8852   0.0000   0.0000   0.0000   0.4003
   1.400   0.5466   0.00573   0.00104  -0.0821  0.4857  0.5100  -0.8954   0.0000   0.0000   0.0000   0.3971
   1.500   0.5568   0.00565   0.00106  -0.0820  0.4789  0.5625  -0.9060   0.0000   0.0000   0.0000   0.3940
   1.600   0.5671   0.00556   0.00109  -0.0819  0.4730  0.6121  -0.9171   0.0000   0.0000   0.0000   0.3910
   1.700   0.5772   0.00551   0.00112  -0.0817  0.4650  0.6570  -0.9280   0.0000   0.0000   0.0000   0.3881
   1.800   0.5872   0.00545   0.00115  -0.0815  0.4577  0.7028  -0.9389   0.0000   0.0000   0.0000   0.3853
   1.900   0.5971   0.00538   0.00119  -0.0813  0.4501  0.7511  -0.9498   0.0000   0.0000   0.0000   0.3825
   2.000   0.6064   0.00534   0.00123  -0.0809  0.4404  0.7978  -0.9602   0.0000   0.0000   0.0000   0.3797
   2.100   0.6160   0.00529   0.00127  -0.0806  0.4328  0.8369  -0.9710   0.0000   0.0000   0.0000   0.3769
   2.200   0.6250   0.00530   0.00132  -0.0801  0.4215  0.8689  -0.9813   0.0000   0.0000   0.0000   0.3742
   2.300   0.6343   0.00531   0.00137  -0.0796  0.4107  0.8964  -0.9919   0.0000   0.0000   0.0000   0.3715
   2.400   0.6430   0.00538   0.00143  -0.0791  0.3956  0.9213  -1.0020   0.0000   0.0000   0.0000   0.3689
   2.500   0.6513   0.00547   0.00150  -0.0784  0.3790  0.9467  -1.0119   0.0000   0.0000   0.0000   0.3662
   2.600   0.6613   0.00558   0.00156  -0.0781  0.3642  0.9613  -1.0229   0.0000   0.0000   0.0000   0.3639
   2.700   0.6749   0.00567   0.00162  -0.0787  0.3519  0.9775  -1.0363   0.0000   0.0000   0.0000   0.3622
   2.800   0.6902   0.00579   0.00168  -0.0797  0.3400  0.9857  -1.0508   0.0000   0.0000   0.0000   0.3609
   2.900   0.7034   0.00584   0.00171  -0.0801  0.3358  0.9902  -1.0640   0.0000   0.0000   0.0000   0.3593
   3.000   0.7193   0.00590   0.00174  -0.0812  0.3314  0.9925  -1.0791   0.0000   0.0000   0.0000   0.3582
   3.100   0.7358   0.00598   0.00178  -0.0824  0.3266  0.9948  -1.0945   0.0000   0.0000   0.0000   0.3573
   3.200   0.7514   0.00605   0.00183  -0.0835  0.3201  0.9967  -1.1098   0.0000   0.0000   0.0000   0.3562
   3.300   0.7659   0.00609   0.00186  -0.0843  0.3173  0.9980  -1.1317   0.0000   0.0000   0.0000   0.3550
   3.400   0.7794   0.00615   0.00189  -0.0848  0.3134  0.9988  -1.1581   0.0000   0.0000   0.0000   0.3537
   3.500   0.7929   0.00621   0.00193  -0.0853  0.3092  0.9996  -1.1845   0.0000   0.0000   0.0000   0.3525
   3.600   0.8054   0.00628   0.00197  -0.0857  0.3052  1.0000  -1.2101   0.0000   0.0000   0.0000   0.3511
   3.700   0.8152   0.00633   0.00200  -0.0854  0.3018  1.0000  -1.2327   0.0000   0.0000   0.0000   0.3494
   3.800   0.8252   0.00637   0.00203  -0.0852  0.2998  1.0000  -1.2558   0.0000   0.0000   0.0000   0.3478
   3.900   0.8354   0.00639   0.00206  -0.0849  0.2987  1.0000  -1.2791   0.0000   0.0000   0.0000   0.3461
   4.000   0.8455   0.00643   0.00209  -0.0847  0.2972  1.0000  -1.3026   0.0000   0.0000   0.0000   0.3446
   4.100   0.8556   0.00646   0.00212  -0.0845  0.2953  1.0000  -1.3260   0.0000   0.0000   0.0000   0.3430
   4.200   0.8656   0.00651   0.00215  -0.0843  0.2929  1.0000  -1.3507   0.0000   0.0000   0.0000   0.3415
   4.300   0.8755   0.00656   0.00219  -0.0840  0.2904  1.0000  -1.3767   0.0000   0.0000   0.0000   0.3400
   4.400   0.8854   0.00661   0.00222  -0.0837  0.2874  1.0000  -1.4027   0.0000   0.0000   0.0000   0.3385
   4.500   0.8952   0.00668   0.00227  -0.0835  0.2837  1.0000  -1.4287   0.0000   0.0000   0.0000   0.3371
   4.600   0.9051   0.00673   0.00231  -0.0832  0.2801  1.0000  -1.4551   0.0000   0.0000   0.0000   0.3357
   4.700   0.9155   0.00676   0.00234  -0.0831  0.2793  1.0000  -1.4822   0.0000   0.0000   0.0000   0.3344
   4.800   0.9258   0.00679   0.00238  -0.0829  0.2782  1.0000  -1.5094   0.0000   0.0000   0.0000   0.3331
   4.900   0.9362   0.00683   0.00241  -0.0827  0.2768  1.0000  -1.5368   0.0000   0.0000   0.0000   0.3318
   5.000   0.9465   0.00687   0.00244  -0.0826  0.2750  1.0000  -1.5642   0.0000   0.0000   0.0000   0.3306
   5.100   0.9567   0.00692   0.00248  -0.0824  0.2724  1.0000  -1.5917   0.0000   0.0000   0.0000   0.3293
   5.200   0.9666   0.00700   0.00253  -0.0821  0.2675  1.0000  -1.6187   0.0000   0.0000   0.0000   0.3281
   5.300   0.9762   0.00709   0.00259  -0.0819  0.2599  1.0000  -1.6455   0.0000   0.0000   0.0000   0.3269
   5.400   0.9865   0.00715   0.00263  -0.0817  0.2558  1.0000  -1.6735   0.0000   0.0000   0.0000   0.3257
   5.500   0.9964   0.00724   0.00268  -0.0815  0.2494  1.0000  -1.7013   0.0000   0.0000   0.0000   0.3246
   5.600   1.0062   0.00733   0.00274  -0.0813  0.2437  1.0000  -1.7320   0.0000   0.0000   0.0000   0.3234
   5.700   1.0164   0.00740   0.00279  -0.0811  0.2396  1.0000  -1.7636   0.0000   0.0000   0.0000   0.3223
   5.800   1.0269   0.00744   0.00284  -0.0810  0.2372  1.0000  -1.7957   0.0000   0.0000   0.0000   0.3213
   5.900   1.0372   0.00751   0.00289  -0.0808  0.2329  1.0000  -1.8276   0.0000   0.0000   0.0000   0.3203
   6.000   1.0469   0.00762   0.00296  -0.0806  0.2263  1.0000  -1.8588   0.0000   0.0000   0.0000   0.3192
   6.100   1.0567   0.00772   0.00302  -0.0804  0.2194  1.0000  -1.8903   0.0000   0.0000   0.0000   0.3182
   6.200   1.0669   0.00780   0.00310  -0.0802  0.2144  1.0000  -1.9225   0.0000   0.0000   0.0000   0.3172
   6.300   1.0758   0.00797   0.00320  -0.0799  0.2034  1.0000  -1.9528   0.0000   0.0000   0.0000   0.3161
   6.400   1.0853   0.00810   0.00328  -0.0796  0.1937  1.0000  -1.9841   0.0000   0.0000   0.0000   0.3151
   6.500   1.0936   0.00833   0.00342  -0.0791  0.1784  1.0000  -2.0135   0.0000   0.0000   0.0000   0.3140
   6.600   1.1017   0.00856   0.00356  -0.0787  0.1638  1.0000  -2.0427   0.0000   0.0000   0.0000   0.3129
   6.700   1.1107   0.00874   0.00368  -0.0783  0.1524  1.0000  -2.0734   0.0000   0.0000   0.0000   0.3119
   6.800   1.1190   0.00896   0.00383  -0.0779  0.1393  1.0000  -2.1032   0.0000   0.0000   0.0000   0.3109
   6.900   1.1282   0.00912   0.00395  -0.0776  0.1313  1.0000  -2.1347   0.0000   0.0000   0.0000   0.3099
   7.000   1.1367   0.00933   0.00409  -0.0772  0.1195  1.0000  -2.1649   0.0000   0.0000   0.0000   0.3089
   7.100   1.1460   0.00948   0.00420  -0.0769  0.1128  1.0000  -2.2146   0.0000   0.0000   0.0000   0.3080
   7.200   1.1543   0.00971   0.00435  -0.0765  0.1017  1.0000  -2.2752   0.0000   0.0000   0.0000   0.3070
   7.300   1.1640   0.00983   0.00445  -0.0762  0.0971  1.0000  -2.3443   0.0000   0.0000   0.0000   0.3061
   7.400   1.1734   0.00996   0.00456  -0.0760  0.0929  1.0000  -2.4160   0.0000   0.0000   0.0000   0.3053
   7.500   1.1826   0.01012   0.00468  -0.0757  0.0881  1.0000  -2.4875   0.0000   0.0000   0.0000   0.3044
   7.600   1.1921   0.01026   0.00478  -0.0754  0.0825  1.0000  -2.5607   0.0000   0.0000   0.0000   0.3035
   7.700   1.2021   0.01035   0.00488  -0.0753  0.0796  1.0000  -2.6367   0.0000   0.0000   0.0000   0.3028
   7.800   1.2120   0.01044   0.00497  -0.0751  0.0782  1.0000  -2.7135   0.0000   0.0000   0.0000   0.3020
   7.900   1.2217   0.01056   0.00507  -0.0749  0.0756  1.0000  -2.7897   0.0000   0.0000   0.0000   0.3012
   8.000   1.2307   0.01072   0.00520  -0.0746  0.0713  1.0000  -2.8644   0.0000   0.0000   0.0000   0.3003
   8.100   1.2395   0.01090   0.00534  -0.0742  0.0657  1.0000  -2.9382   0.0000   0.0000   0.0000   0.2995
   8.200   1.2489   0.01104   0.00545  -0.0740  0.0599  1.0000  -3.0152   0.0000   0.0000   0.0000   0.2987
   8.300   1.2580   0.01119   0.00557  -0.0737  0.0566  1.0000  -3.0919   0.0000   0.0000   0.0000   0.2979
   8.400   1.2652   0.01149   0.00579  -0.0731  0.0496  1.0000  -3.1612   0.0000   0.0000   0.0000   0.2970
   8.500   1.2723   0.01179   0.00603  -0.0725  0.0411  1.0000  -3.2310   0.0000   0.0000   0.0000   0.2960
   8.600   1.2759   0.01237   0.00646  -0.0713  0.0201  1.0000  -3.2888   0.0000   0.0000   0.0000   0.2948
   8.700   1.2845   0.01255   0.00663  -0.0709  0.0183  1.0000  -3.3695   0.0000   0.0000   0.0000   0.2940
   8.800   1.2930   0.01274   0.00679  -0.0706  0.0164  1.0000  -3.4503   0.0000   0.0000   0.0000   0.2932
   8.900   1.3020   0.01289   0.00693  -0.0702  0.0140  1.0000  -3.5319   0.0000   0.0000   0.0000   0.2924
   9.000   1.3109   0.01304   0.00708  -0.0699  0.0121  1.0000  -3.6089   0.0000   0.0000   0.0000   0.2917
   9.100   1.3202   0.01316   0.00721  -0.0696  0.0120  1.0000  -3.6976   0.0000   0.0000   0.0000   0.2909
   9.200   1.3294   0.01328   0.00733  -0.0694  0.0119  1.0000  -3.7866   0.0000   0.0000   0.0000   0.2902
   9.300   1.3385   0.01340   0.00747  -0.0691  0.0118  1.0000  -3.8759   0.0000   0.0000   0.0000   0.2895
   9.400   1.3476   0.01353   0.00760  -0.0688  0.0116  1.0000  -3.9654   0.0000   0.0000   0.0000   0.2888
   9.500   1.3565   0.01366   0.00774  -0.0685  0.0114  1.0000  -4.0551   0.0000   0.0000   0.0000   0.2881
   9.600   1.3653   0.01380   0.00789  -0.0681  0.0112  1.0000  -4.1450   0.0000   0.0000   0.0000   0.2874
   9.700   1.3740   0.01394   0.00804  -0.0678  0.0110  1.0000  -4.2348   0.0000   0.0000   0.0000   0.2867
   9.800   1.3826   0.01409   0.00820  -0.0674  0.0107  1.0000  -4.3290   0.0000   0.0000   0.0000   0.2859
   9.900   1.3909   0.01425   0.00836  -0.0670  0.0105  1.0000  -4.4283   0.0000   0.0000   0.0000   0.2852
  10.000   1.3991   0.01442   0.00853  -0.0666  0.0102  1.0000  -4.5275   0.0000   0.0000   0.0000   0.2845
  10.100   1.4070   0.01460   0.00873  -0.0661  0.0098  1.0000  -4.6256   0.0000   0.0000   0.0000   0.2837
  10.200   1.4147   0.01479   0.00892  -0.0656  0.0094  1.0000  -4.7231   0.0000   0.0000   0.0000   0.2830
  10.300   1.4219   0.01498   0.00912  -0.0650  0.0090  1.0000  -4.8174   0.0000   0.0000   0.0000   0.2821
  10.400   1.4287   0.01518   0.00935  -0.0643  0.0085  1.0000  -4.9085   0.0000   0.0000   0.0000   0.2813
  10.500   1.4349   0.01541   0.00961  -0.0635  0.0081  1.0000  -4.9953   0.0000   0.0000   0.0000   0.2804
  10.600   1.4425   0.01555   0.00975  -0.0630  0.0081  1.0000  -5.0982   0.0000   0.0000   0.0000   0.2796
  10.700   1.4501   0.01570   0.00990  -0.0625  0.0080  1.0000  -5.2014   0.0000   0.0000   0.0000   0.2789
  10.800   1.4576   0.01585   0.01005  -0.0620  0.0080  1.0000  -5.3049   0.0000   0.0000   0.0000   0.2781
  10.900   1.4650   0.01600   0.01021  -0.0614  0.0080  1.0000  -5.4085   0.0000   0.0000   0.0000   0.2774
  11.000   1.4723   0.01616   0.01038  -0.0609  0.0079  1.0000  -5.5120   0.0000   0.0000   0.0000   0.2766
  11.100   1.4794   0.01632   0.01055  -0.0603  0.0079  1.0000  -5.6159   0.0000   0.0000   0.0000   0.2759
  11.200   1.4865   0.01649   0.01072  -0.0597  0.0078  1.0000  -5.7198   0.0000   0.0000   0.0000   0.2752
  11.300   1.4936   0.01667   0.01090  -0.0592  0.0078  1.0000  -5.8240   0.0000   0.0000   0.0000   0.2744
  11.400   1.5005   0.01685   0.01109  -0.0586  0.0077  1.0000  -5.9285   0.0000   0.0000   0.0000   0.2737
  11.500   1.5074   0.01704   0.01129  -0.0580  0.0076  1.0000  -6.0329   0.0000   0.0000   0.0000   0.2730
  11.600   1.5140   0.01723   0.01150  -0.0574  0.0075  1.0000  -6.1368   0.0000   0.0000   0.0000   0.2722
  11.700   1.5205   0.01744   0.01171  -0.0568  0.0075  1.0000  -6.2406   0.0000   0.0000   0.0000   0.2715
  11.800   1.5270   0.01764   0.01193  -0.0562  0.0074  1.0000  -6.3449   0.0000   0.0000   0.0000   0.2708
  11.900   1.5336   0.01786   0.01215  -0.0556  0.0073  1.0000  -6.4499   0.0000   0.0000   0.0000   0.2701
  12.000   1.5400   0.01808   0.01238  -0.0550  0.0072  1.0000  -6.5551   0.0000   0.0000   0.0000   0.2693
  12.100   1.5462   0.01831   0.01262  -0.0544  0.0071  1.0000  -6.6595   0.0000   0.0000   0.0000   0.2686
  12.200   1.5523   0.01855   0.01287  -0.0538  0.0070  1.0000  -6.7639   0.0000   0.0000   0.0000   0.2679
  12.300   1.5584   0.01879   0.01313  -0.0531  0.0069  1.0000  -6.8683   0.0000   0.0000   0.0000   0.2672
  12.400   1.5643   0.01904   0.01340  -0.0525  0.0068  1.0000  -6.9732   0.0000   0.0000   0.0000   0.2665
  12.500   1.5702   0.01930   0.01368  -0.0519  0.0067  1.0000  -7.0777   0.0000   0.0000   0.0000   0.2658
  12.600   1.5757   0.01958   0.01396  -0.0513  0.0066  1.0000  -7.1812   0.0000   0.0000   0.0000   0.2651
  12.700   1.5813   0.01986   0.01426  -0.0506  0.0065  1.0000  -7.2849   0.0000   0.0000   0.0000   0.2644
  12.800   1.5869   0.02015   0.01456  -0.0500  0.0064  1.0000  -7.3895   0.0000   0.0000   0.0000   0.2637
  12.900   1.5924   0.02045   0.01487  -0.0494  0.0063  1.0000  -7.4944   0.0000   0.0000   0.0000   0.2630
  13.000   1.5976   0.02076   0.01520  -0.0488  0.0062  1.0000  -7.5976   0.0000   0.0000   0.0000   0.2624
  13.100   1.6026   0.02109   0.01554  -0.0481  0.0061  1.0000  -7.7000   0.0000   0.0000   0.0000   0.2617
  13.200   1.6076   0.02142   0.01588  -0.0475  0.0060  1.0000  -7.8030   0.0000   0.0000   0.0000   0.2610
  13.300   1.6126   0.02176   0.01623  -0.0468  0.0059  1.0000  -7.9061   0.0000   0.0000   0.0000   0.2603
  13.400   1.6172   0.02213   0.01661  -0.0462  0.0058  1.0000  -8.0071   0.0000   0.0000   0.0000   0.2597
  13.500   1.6217   0.02251   0.01701  -0.0455  0.0057  1.0000  -8.1076   0.0000   0.0000   0.0000   0.2590
  13.600   1.6262   0.02290   0.01741  -0.0449  0.0055  1.0000  -8.2081   0.0000   0.0000   0.0000   0.2583
  13.700   1.6305   0.02331   0.01785  -0.0443  0.0054  1.0000  -8.3068   0.0000   0.0000   0.0000   0.2577
  13.800   1.6343   0.02376   0.01831  -0.0436  0.0053  1.0000  -8.4023   0.0000   0.0000   0.0000   0.2570
  13.900   1.6379   0.02422   0.01880  -0.0430  0.0052  1.0000  -8.4963   0.0000   0.0000   0.0000   0.2564
  14.000   1.6413   0.02471   0.01931  -0.0423  0.0050  1.0000  -8.5881   0.0000   0.0000   0.0000   0.2557
  14.100   1.6440   0.02525   0.01988  -0.0416  0.0049  1.0000  -8.6748   0.0000   0.0000   0.0000   0.2550
  14.200   1.6466   0.02582   0.02048  -0.0408  0.0048  1.0000  -8.7593   0.0000   0.0000   0.0000   0.2544
  14.300   1.6487   0.02643   0.02113  -0.0401  0.0047  1.0000  -8.8399   0.0000   0.0000   0.0000   0.2537
  14.400   1.6499   0.02713   0.02187  -0.0394  0.0045  1.0000  -8.9132   0.0000   0.0000   0.0000   0.2530
  14.500   1.6506   0.02788   0.02266  -0.0386  0.0044  1.0000  -8.9816   0.0000   0.0000   0.0000   0.2523
  14.600   1.6501   0.02874   0.02358  -0.0378  0.0043  1.0000  -9.0390   0.0000   0.0000   0.0000   0.2516
  14.700   1.6484   0.02971   0.02462  -0.0369  0.0042  1.0000  -9.0859   0.0000   0.0000   0.0000   0.2509
  14.800   1.6448   0.03085   0.02583  -0.0360  0.0041  1.0000  -9.1165   0.0000   0.0000   0.0000   0.2502
  14.900   1.6456   0.03166   0.02667  -0.0354  0.0041  1.0000  -9.1887   0.0000   0.0000   0.0000   0.2496
  15.000   1.6489   0.03224   0.02728  -0.0350  0.0041  1.0000  -9.2874   0.0000   0.0000   0.0000   0.2491
  15.100   1.6521   0.03285   0.02790  -0.0346  0.0041  1.0000  -9.3855   0.0000   0.0000   0.0000   0.2486
  15.200   1.6555   0.03344   0.02851  -0.0342  0.0040  1.0000  -9.4856   0.0000   0.0000   0.0000   0.2482
  15.300   1.6586   0.03407   0.02916  -0.0339  0.0040  1.0000  -9.5838   0.0000   0.0000   0.0000   0.2477
  15.400   1.6614   0.03474   0.02984  -0.0335  0.0040  1.0000  -9.6795   0.0000   0.0000   0.0000   0.2472
  15.500   1.6643   0.03539   0.03052  -0.0332  0.0040  1.0000  -9.7773   0.0000   0.0000   0.0000   0.2468
  15.600   1.6671   0.03607   0.03121  -0.0329  0.0040  1.0000  -9.8741   0.0000   0.0000   0.0000   0.2463
  15.700   1.6694   0.03680   0.03196  -0.0326  0.0040  1.0000  -9.9667   0.0000   0.0000   0.0000   0.2459
  15.800   1.6717   0.03752   0.03270  -0.0323  0.0040  1.0000  -10.0605   0.0000   0.0000   0.0000   0.2455
  15.900   1.6740   0.03825   0.03345  -0.0320  0.0040  1.0000  -10.1540   0.0000   0.0000   0.0000   0.2450
  16.000   1.6757   0.03905   0.03428  -0.0317  0.0040  1.0000  -10.2427   0.0000   0.0000   0.0000   0.2446
  16.100   1.6777   0.03984   0.03508  -0.0314  0.0040  1.0000  -10.3340   0.0000   0.0000   0.0000   0.2442
  16.200   1.6797   0.04064   0.03590  -0.0312  0.0040  1.0000  -10.4256   0.0000   0.0000   0.0000   0.2438
  16.300   1.6810   0.04153   0.03682  -0.0310  0.0039  1.0000  -10.5114   0.0000   0.0000   0.0000   0.2434
  16.400   1.6826   0.04239   0.03770  -0.0308  0.0039  1.0000  -10.6001   0.0000   0.0000   0.0000   0.2431
  16.500   1.6841   0.04327   0.03860  -0.0306  0.0039  1.0000  -10.6880   0.0000   0.0000   0.0000   0.2427
  16.600   1.6850   0.04425   0.03960  -0.0304  0.0039  1.0000  -10.7701   0.0000   0.0000   0.0000   0.2424
  16.700   1.6861   0.04518   0.04057  -0.0302  0.0039  1.0000  -10.8554   0.0000   0.0000   0.0000   0.2420
  16.800   1.6871   0.04616   0.04157  -0.0301  0.0039  1.0000  -10.9387   0.0000   0.0000   0.0000   0.2417
  16.900   1.6874   0.04723   0.04267  -0.0300  0.0038  1.0000  -11.0163   0.0000   0.0000   0.0000   0.2414
  17.000   1.6881   0.04825   0.04370  -0.0299  0.0038  1.0000  -11.0981   0.0000   0.0000   0.0000   0.2411
  17.100   1.6882   0.04935   0.04483  -0.0298  0.0038  1.0000  -11.1732   0.0000   0.0000   0.0000   0.2408
  17.200   1.6879   0.05050   0.04602  -0.0298  0.0038  1.0000  -11.2457   0.0000   0.0000   0.0000   0.2405
  17.300   1.6881   0.05160   0.04714  -0.0297  0.0038  1.0000  -11.3224   0.0000   0.0000   0.0000   0.2403
  17.400   1.6872   0.05286   0.04844  -0.0297  0.0038  1.0000  -11.3894   0.0000   0.0000   0.0000   0.2400
  17.500   1.6867   0.05409   0.04969  -0.0297  0.0037  1.0000  -11.4594   0.0000   0.0000   0.0000   0.2398
  17.600   1.6861   0.05533   0.05095  -0.0298  0.0037  1.0000  -11.5291   0.0000   0.0000   0.0000   0.2396
  17.700   1.6846   0.05671   0.05237  -0.0299  0.0037  1.0000  -11.5900   0.0000   0.0000   0.0000   0.2394
  17.800   1.6839   0.05799   0.05368  -0.0299  0.0037  1.0000  -11.6579   0.0000   0.0000   0.0000   0.2392
  17.900   1.6820   0.05945   0.05517  -0.0301  0.0037  1.0000  -11.7149   0.0000   0.0000   0.0000   0.2391
  18.000   1.6804   0.06088   0.05663  -0.0302  0.0037  1.0000  -11.7742   0.0000   0.0000   0.0000   0.2389
  18.100   1.6789   0.06232   0.05810  -0.0304  0.0036  1.0000  -11.8333   0.0000   0.0000   0.0000   0.2388
  18.200   1.6762   0.06392   0.05974  -0.0307  0.0036  1.0000  -11.8821   0.0000   0.0000   0.0000   0.2387
  18.300   1.6745   0.06539   0.06124  -0.0308  0.0036  1.0000  -11.9394   0.0000   0.0000   0.0000   0.2386
  18.400   1.6710   0.06711   0.06300  -0.0311  0.0036  1.0000  -11.9796   0.0000   0.0000   0.0000   0.2385
  18.500   1.6683   0.06872   0.06463  -0.0314  0.0036  1.0000  -12.0276   0.0000   0.0000   0.0000   0.2385
  18.600   1.6649   0.07045   0.06640  -0.0317  0.0036  1.0000  -12.0677   0.0000   0.0000   0.0000   0.2384
  18.700   1.6613   0.07223   0.06822  -0.0321  0.0035  1.0000  -12.1055   0.0000   0.0000   0.0000   0.2384
  18.800   1.6581   0.07395   0.06997  -0.0324  0.0035  1.0000  -12.1474   0.0000   0.0000   0.0000   0.2384
  18.900   1.6535   0.07594   0.07200  -0.0329  0.0035  1.0000  -12.1733   0.0000   0.0000   0.0000   0.2385
  19.000   1.6502   0.07770   0.07379  -0.0333  0.0035  1.0000  -12.2133   0.0000   0.0000   0.0000   0.2385
  19.100   1.6448   0.07982   0.07595  -0.0338  0.0035  1.0000  -12.2311   0.0000   0.0000   0.0000   0.2387
  19.200   1.6409   0.08172   0.07788  -0.0343  0.0035  1.0000  -12.2627   0.0000   0.0000   0.0000   0.2387
  19.300   1.6354   0.08386   0.08007  -0.0349  0.0034  1.0000  -12.2788   0.0000   0.0000   0.0000   0.2389
  19.400   1.6306   0.08593   0.08217  -0.0355  0.0034  1.0000  -12.2998   0.0000   0.0000   0.0000   0.2391
  19.500   1.6253   0.08805   0.08433  -0.0361  0.0034  1.0000  -12.3159   0.0000   0.0000   0.0000   0.2392
  19.600   1.6191   0.09032   0.08664  -0.0367  0.0034  1.0000  -12.3217   0.0000   0.0000   0.0000   0.2395
  19.700   1.6139   0.09242   0.08879  -0.0373  0.0034  1.0000  -12.3374   0.0000   0.0000   0.0000   0.2397
  19.800   1.6067   0.09489   0.09130  -0.0381  0.0034  1.0000  -12.3313   0.0000   0.0000   0.0000   0.2400
  19.900   1.6016   0.09703   0.09347  -0.0388  0.0034  1.0000  -12.3463   0.0000   0.0000   0.0000   0.2402
  20.000   1.5938   0.09964   0.09613  -0.0397  0.0034  1.0000  -12.3311   0.0000   0.0000   0.0000   0.2407


