xflr5 v6.61

 Calculated polar for: EPPLER 748 AIRFOIL

 1 1 Reynolds number fixed          Mach number fixed         

 xtrf =   1.000 (top)        1.000 (bottom)
 Mach =   0.000     Re =     2.392 e 6     Ncrit =   9.000

  alpha     CL        CD       CDp       Cm    Top Xtr Bot Xtr   Cpmin    Chinge    XCp    
 ------- -------- --------- --------- -------- ------- ------- -------- --------- ---------
  -6.000  -0.0070   0.00904   0.00317  -0.1506  0.5418  0.0223  -1.9574   0.0000   0.0000   0.0000  -21.9502
  -5.900   0.0047   0.00898   0.00311  -0.1508  0.5392  0.0235  -1.8949   0.0000   0.0000   0.0000  33.6265
  -5.800   0.0163   0.00893   0.00306  -0.1509  0.5361  0.0247  -1.8331   0.0000   0.0000   0.0000   9.8162
  -5.700   0.0279   0.00888   0.00301  -0.1510  0.5328  0.0260  -1.7720   0.0000   0.0000   0.0000   5.8464
  -5.500   0.0513   0.00863   0.00279  -0.1515  0.5254  0.0444  -1.6525   0.0000   0.0000   0.0000   3.2987
  -5.400   0.0629   0.00859   0.00275  -0.1516  0.5211  0.0487  -1.5932   0.0000   0.0000   0.0000   2.7372
  -5.300   0.0747   0.00851   0.00267  -0.1519  0.5165  0.0571  -1.5345   0.0000   0.0000   0.0000   2.3464
  -5.200   0.0865   0.00839   0.00258  -0.1521  0.5115  0.0647  -1.4762   0.0000   0.0000   0.0000   2.0602
  -5.100   0.0983   0.00834   0.00253  -0.1523  0.5068  0.0689  -1.4183   0.0000   0.0000   0.0000   1.8434
  -5.000   0.1103   0.00824   0.00247  -0.1525  0.5027  0.0814  -1.3611   0.0000   0.0000   0.0000   1.6718
  -4.900   0.1224   0.00809   0.00237  -0.1529  0.5001  0.0927  -1.3042   0.0000   0.0000   0.0000   1.5323
  -4.800   0.1345   0.00802   0.00232  -0.1531  0.4997  0.0990  -1.2475   0.0000   0.0000   0.0000   1.4177
  -4.700   0.1469   0.00788   0.00224  -0.1534  0.4992  0.1157  -1.1915   0.0000   0.0000   0.0000   1.3214
  -4.600   0.1591   0.00776   0.00216  -0.1538  0.4986  0.1264  -1.1361   0.0000   0.0000   0.0000   1.2401
  -4.500   0.1712   0.00768   0.00212  -0.1540  0.4978  0.1389  -1.0814   0.0000   0.0000   0.0000   1.1706
  -4.400   0.1837   0.00750   0.00202  -0.1544  0.4968  0.1576  -1.0273   0.0000   0.0000   0.0000   1.1099
  -4.300   0.1958   0.00743   0.00197  -0.1546  0.4956  0.1667  -0.9740   0.0000   0.0000   0.0000   1.0573
  -4.200   0.2082   0.00725   0.00188  -0.1551  0.4941  0.1906  -0.9213   0.0000   0.0000   0.0000   1.0106
  -4.100   0.2203   0.00716   0.00182  -0.1553  0.4923  0.2020  -0.8693   0.0000   0.0000   0.0000   0.9694
  -4.000   0.2325   0.00704   0.00175  -0.1556  0.4901  0.2241  -0.8653   0.0000   0.0000   0.0000   0.9326
  -3.900   0.2446   0.00693   0.00169  -0.1559  0.4875  0.2399  -0.8753   0.0000   0.0000   0.0000   0.8995
  -3.800   0.2565   0.00687   0.00165  -0.1561  0.4844  0.2568  -0.8852   0.0000   0.0000   0.0000   0.8697
  -3.700   0.2685   0.00675   0.00159  -0.1565  0.4811  0.2780  -0.8951   0.0000   0.0000   0.0000   0.8426
  -3.600   0.2802   0.00674   0.00158  -0.1566  0.4775  0.2853  -0.9049   0.0000   0.0000   0.0000   0.8178
  -3.500   0.2918   0.00676   0.00158  -0.1566  0.4734  0.2856  -0.9147   0.0000   0.0000   0.0000   0.7950
  -3.400   0.3013   0.00736   0.00178  -0.1556  0.4690  0.1926  -0.9234   0.0000   0.0000   0.0000   0.7739
  -3.300   0.3132   0.00731   0.00174  -0.1558  0.4643  0.2030  -0.9333   0.0000   0.0000   0.0000   0.7543
  -3.200   0.3255   0.00718   0.00168  -0.1561  0.4599  0.2274  -0.9434   0.0000   0.0000   0.0000   0.7360
  -3.100   0.3376   0.00709   0.00163  -0.1564  0.4562  0.2427  -0.9534   0.0000   0.0000   0.0000   0.7190
  -3.000   0.3499   0.00695   0.00158  -0.1568  0.4532  0.2704  -0.9636   0.0000   0.0000   0.0000   0.7032
  -2.900   0.3621   0.00688   0.00156  -0.1571  0.4517  0.2856  -0.9738   0.0000   0.0000   0.0000   0.6883
  -2.700   0.3867   0.00671   0.00154  -0.1576  0.4512  0.3238  -0.9944   0.0000   0.0000   0.0000   0.6612
  -2.600   0.3987   0.00671   0.00155  -0.1578  0.4509  0.3267  -1.0046   0.0000   0.0000   0.0000   0.6488
  -2.500   0.4107   0.00670   0.00155  -0.1579  0.4506  0.3288  -1.0147   0.0000   0.0000   0.0000   0.6372
  -2.400   0.4227   0.00670   0.00155  -0.1580  0.4502  0.3306  -1.0249   0.0000   0.0000   0.0000   0.6262
  -2.300   0.4347   0.00669   0.00156  -0.1582  0.4497  0.3414  -1.0351   0.0000   0.0000   0.0000   0.6159
  -2.200   0.4468   0.00666   0.00158  -0.1584  0.4491  0.3518  -1.0454   0.0000   0.0000   0.0000   0.6061
  -2.100   0.4588   0.00665   0.00160  -0.1585  0.4484  0.3598  -1.0556   0.0000   0.0000   0.0000   0.5968
  -2.000   0.4706   0.00665   0.00163  -0.1586  0.4476  0.3646  -1.0661   0.0000   0.0000   0.0000   0.5880
  -1.900   0.4825   0.00667   0.00165  -0.1587  0.4466  0.3675  -1.0775   0.0000   0.0000   0.0000   0.5796
  -1.800   0.4942   0.00669   0.00167  -0.1588  0.4454  0.3695  -1.0889   0.0000   0.0000   0.0000   0.5717
  -1.700   0.5059   0.00671   0.00169  -0.1589  0.4440  0.3710  -1.1003   0.0000   0.0000   0.0000   0.5641
  -1.600   0.5176   0.00674   0.00171  -0.1589  0.4425  0.3721  -1.1117   0.0000   0.0000   0.0000   0.5568
  -1.500   0.5292   0.00677   0.00173  -0.1590  0.4407  0.3728  -1.1231   0.0000   0.0000   0.0000   0.5499
  -1.400   0.5408   0.00680   0.00174  -0.1590  0.4388  0.3734  -1.1344   0.0000   0.0000   0.0000   0.5433
  -1.300   0.5524   0.00683   0.00176  -0.1591  0.4367  0.3738  -1.1458   0.0000   0.0000   0.0000   0.5370
  -1.200   0.5639   0.00686   0.00177  -0.1591  0.4346  0.3741  -1.1571   0.0000   0.0000   0.0000   0.5310
  -1.100   0.5754   0.00690   0.00179  -0.1592  0.4323  0.3744  -1.1684   0.0000   0.0000   0.0000   0.5252
  -1.000   0.5868   0.00695   0.00182  -0.1592  0.4299  0.3749  -1.1797   0.0000   0.0000   0.0000   0.5196
  -0.900   0.5981   0.00700   0.00186  -0.1592  0.4272  0.3754  -1.1910   0.0000   0.0000   0.0000   0.5142
  -0.800   0.6095   0.00707   0.00192  -0.1591  0.4244  0.3759  -1.2023   0.0000   0.0000   0.0000   0.5090
  -0.700   0.6207   0.00715   0.00200  -0.1591  0.4213  0.3764  -1.2136   0.0000   0.0000   0.0000   0.5040
  -0.600   0.6320   0.00723   0.00209  -0.1590  0.4181  0.3767  -1.2248   0.0000   0.0000   0.0000   0.4991
  -0.500   0.6432   0.00731   0.00218  -0.1590  0.4150  0.3769  -1.2361   0.0000   0.0000   0.0000   0.4945
  -0.400   0.6546   0.00736   0.00222  -0.1590  0.4122  0.3770  -1.2474   0.0000   0.0000   0.0000   0.4900
  -0.300   0.6661   0.00739   0.00225  -0.1590  0.4097  0.3771  -1.2588   0.0000   0.0000   0.0000   0.4857
  -0.200   0.6776   0.00742   0.00227  -0.1591  0.4075  0.3771  -1.2702   0.0000   0.0000   0.0000   0.4815
  -0.100   0.6891   0.00745   0.00231  -0.1591  0.4055  0.3772  -1.2816   0.0000   0.0000   0.0000   0.4774
   0.000   0.7007   0.00748   0.00233  -0.1592  0.4045  0.3772  -1.2932   0.0000   0.0000   0.0000   0.4735
   0.100   0.7124   0.00749   0.00235  -0.1592  0.4044  0.3772  -1.3049   0.0000   0.0000   0.0000   0.4697
   0.200   0.7241   0.00750   0.00236  -0.1593  0.4043  0.3773  -1.3167   0.0000   0.0000   0.0000   0.4660
   0.300   0.7359   0.00752   0.00238  -0.1594  0.4042  0.3773  -1.3285   0.0000   0.0000   0.0000   0.4625
   0.400   0.7476   0.00753   0.00239  -0.1595  0.4040  0.3773  -1.3403   0.0000   0.0000   0.0000   0.4590
   0.500   0.7594   0.00754   0.00240  -0.1596  0.4038  0.3774  -1.3521   0.0000   0.0000   0.0000   0.4557
   0.600   0.7711   0.00755   0.00241  -0.1597  0.4036  0.3774  -1.3640   0.0000   0.0000   0.0000   0.4524
   0.700   0.7828   0.00755   0.00242  -0.1598  0.4033  0.3774  -1.3758   0.0000   0.0000   0.0000   0.4493
   0.800   0.7946   0.00756   0.00243  -0.1599  0.4030  0.3774  -1.3877   0.0000   0.0000   0.0000   0.4462
   0.900   0.8063   0.00756   0.00243  -0.1600  0.4026  0.3776  -1.3996   0.0000   0.0000   0.0000   0.4433
   1.000   0.8181   0.00756   0.00242  -0.1601  0.4022  0.3780  -1.4115   0.0000   0.0000   0.0000   0.4404
   1.100   0.8299   0.00756   0.00242  -0.1602  0.4017  0.3783  -1.4234   0.0000   0.0000   0.0000   0.4376
   1.200   0.8416   0.00756   0.00241  -0.1603  0.4011  0.3786  -1.4353   0.0000   0.0000   0.0000   0.4349
   1.300   0.8533   0.00756   0.00241  -0.1604  0.4005  0.3789  -1.4471   0.0000   0.0000   0.0000   0.4323
   1.400   0.8649   0.00757   0.00241  -0.1605  0.3997  0.3791  -1.4590   0.0000   0.0000   0.0000   0.4297
   1.500   0.8766   0.00757   0.00241  -0.1606  0.3989  0.3794  -1.4709   0.0000   0.0000   0.0000   0.4272
   1.600   0.8882   0.00758   0.00241  -0.1607  0.3979  0.3797  -1.4828   0.0000   0.0000   0.0000   0.4248
   1.700   0.8997   0.00760   0.00242  -0.1608  0.3967  0.3799  -1.4946   0.0000   0.0000   0.0000   0.4224
   1.800   0.9112   0.00761   0.00243  -0.1608  0.3953  0.3802  -1.5064   0.0000   0.0000   0.0000   0.4200
   1.900   0.9226   0.00763   0.00243  -0.1609  0.3938  0.3804  -1.5182   0.0000   0.0000   0.0000   0.4178
   2.000   0.9340   0.00766   0.00244  -0.1609  0.3921  0.3806  -1.5300   0.0000   0.0000   0.0000   0.4156
   2.100   0.9453   0.00769   0.00246  -0.1609  0.3902  0.3808  -1.5417   0.0000   0.0000   0.0000   0.4134
   2.200   0.9565   0.00772   0.00247  -0.1610  0.3883  0.3811  -1.5546   0.0000   0.0000   0.0000   0.4113
   2.300   0.9677   0.00776   0.00249  -0.1610  0.3862  0.3813  -1.5677   0.0000   0.0000   0.0000   0.4092
   2.400   0.9789   0.00780   0.00251  -0.1610  0.3839  0.3815  -1.5808   0.0000   0.0000   0.0000   0.4072
   2.500   0.9900   0.00784   0.00253  -0.1610  0.3815  0.3817  -1.5939   0.0000   0.0000   0.0000   0.4052
   2.600   1.0012   0.00788   0.00255  -0.1610  0.3787  0.3819  -1.6070   0.0000   0.0000   0.0000   0.4032
   2.700   1.0123   0.00792   0.00257  -0.1610  0.3756  0.3821  -1.6202   0.0000   0.0000   0.0000   0.4013
   2.800   1.0234   0.00796   0.00259  -0.1610  0.3721  0.3824  -1.6333   0.0000   0.0000   0.0000   0.3995
   2.900   1.0345   0.00800   0.00261  -0.1610  0.3686  0.3826  -1.6464   0.0000   0.0000   0.0000   0.3976
   3.000   1.0456   0.00804   0.00264  -0.1610  0.3654  0.3828  -1.6595   0.0000   0.0000   0.0000   0.3958
   3.100   1.0567   0.00808   0.00267  -0.1610  0.3626  0.3830  -1.6726   0.0000   0.0000   0.0000   0.3941
   3.200   1.0678   0.00811   0.00272  -0.1610  0.3601  0.3833  -1.6857   0.0000   0.0000   0.0000   0.3923
   3.300   1.0791   0.00814   0.00274  -0.1610  0.3589  0.3835  -1.6991   0.0000   0.0000   0.0000   0.3907
   3.400   1.0906   0.00815   0.00276  -0.1611  0.3588  0.3838  -1.7128   0.0000   0.0000   0.0000   0.3890
   3.500   1.1021   0.00816   0.00277  -0.1612  0.3587  0.3840  -1.7264   0.0000   0.0000   0.0000   0.3874
   3.600   1.1136   0.00818   0.00279  -0.1612  0.3586  0.3843  -1.7400   0.0000   0.0000   0.0000   0.3858
   3.700   1.1250   0.00819   0.00281  -0.1613  0.3585  0.3846  -1.7537   0.0000   0.0000   0.0000   0.3842
   3.800   1.1365   0.00821   0.00283  -0.1613  0.3583  0.3849  -1.7674   0.0000   0.0000   0.0000   0.3827
   3.900   1.1479   0.00822   0.00285  -0.1614  0.3582  0.3853  -1.7810   0.0000   0.0000   0.0000   0.3812
   4.000   1.1593   0.00824   0.00287  -0.1615  0.3580  0.3856  -1.7947   0.0000   0.0000   0.0000   0.3797
   4.100   1.1707   0.00825   0.00289  -0.1615  0.3577  0.3860  -1.8084   0.0000   0.0000   0.0000   0.3783
   4.200   1.1821   0.00827   0.00291  -0.1616  0.3575  0.3865  -1.8221   0.0000   0.0000   0.0000   0.3769
   4.300   1.1935   0.00829   0.00293  -0.1616  0.3572  0.3870  -1.8358   0.0000   0.0000   0.0000   0.3755
   4.400   1.2048   0.00831   0.00295  -0.1617  0.3568  0.3875  -1.8495   0.0000   0.0000   0.0000   0.3741
   4.500   1.2162   0.00833   0.00297  -0.1617  0.3564  0.3882  -1.8648   0.0000   0.0000   0.0000   0.3727
   4.600   1.2275   0.00835   0.00300  -0.1618  0.3558  0.3889  -1.8803   0.0000   0.0000   0.0000   0.3714
   4.700   1.2387   0.00837   0.00302  -0.1618  0.3548  0.3898  -1.8957   0.0000   0.0000   0.0000   0.3701
   4.800   1.2499   0.00840   0.00305  -0.1618  0.3534  0.3909  -1.9111   0.0000   0.0000   0.0000   0.3688
   4.900   1.2608   0.00844   0.00308  -0.1618  0.3512  0.3921  -1.9263   0.0000   0.0000   0.0000   0.3675
   5.000   1.2714   0.00850   0.00312  -0.1617  0.3481  0.3938  -1.9413   0.0000   0.0000   0.0000   0.3662
   5.100   1.2816   0.00858   0.00317  -0.1616  0.3439  0.3957  -1.9560   0.0000   0.0000   0.0000   0.3650
   5.200   1.2915   0.00868   0.00323  -0.1614  0.3390  0.3981  -1.9703   0.0000   0.0000   0.0000   0.3637
   5.300   1.3014   0.00878   0.00329  -0.1612  0.3332  0.4007  -1.9846   0.0000   0.0000   0.0000   0.3625
   5.400   1.3116   0.00887   0.00335  -0.1611  0.3267  0.4033  -1.9992   0.0000   0.0000   0.0000   0.3613
   5.500   1.3220   0.00894   0.00341  -0.1610  0.3208  0.4058  -2.0139   0.0000   0.0000   0.0000   0.3601
   5.600   1.3325   0.00900   0.00347  -0.1609  0.3165  0.4080  -2.0288   0.0000   0.0000   0.0000   0.3589
   5.700   1.3434   0.00903   0.00352  -0.1609  0.3152  0.4101  -2.0442   0.0000   0.0000   0.0000   0.3578
   5.800   1.3544   0.00905   0.00356  -0.1609  0.3150  0.4120  -2.0597   0.0000   0.0000   0.0000   0.3566
   5.900   1.3655   0.00908   0.00360  -0.1609  0.3148  0.4138  -2.0752   0.0000   0.0000   0.0000   0.3555
   6.000   1.3764   0.00911   0.00364  -0.1609  0.3146  0.4155  -2.0907   0.0000   0.0000   0.0000   0.3544
   6.100   1.3873   0.00914   0.00368  -0.1608  0.3143  0.4170  -2.1062   0.0000   0.0000   0.0000   0.3533
   6.200   1.3982   0.00917   0.00373  -0.1608  0.3139  0.4184  -2.1217   0.0000   0.0000   0.0000   0.3523
   6.300   1.4090   0.00920   0.00377  -0.1608  0.3134  0.4196  -2.1371   0.0000   0.0000   0.0000   0.3512
   6.400   1.4198   0.00924   0.00381  -0.1607  0.3128  0.4208  -2.1526   0.0000   0.0000   0.0000   0.3502
   6.500   1.4305   0.00928   0.00386  -0.1607  0.3120  0.4217  -2.1679   0.0000   0.0000   0.0000   0.3491
   6.600   1.4408   0.00933   0.00399  -0.1605  0.3153  0.4226  -2.1838   0.0000   0.0000   0.0000   0.3481
   6.700   1.4517   0.00936   0.00403  -0.1605  0.3152  0.4233  -2.2014   0.0000   0.0000   0.0000   0.3470
   6.800   1.4625   0.00939   0.00407  -0.1604  0.3151  0.4240  -2.2190   0.0000   0.0000   0.0000   0.3460
   6.900   1.4733   0.00942   0.00411  -0.1604  0.3150  0.4245  -2.2366   0.0000   0.0000   0.0000   0.3451
   7.000   1.4840   0.00946   0.00416  -0.1603  0.3148  0.4250  -2.2541   0.0000   0.0000   0.0000   0.3441
   7.100   1.4947   0.00949   0.00420  -0.1603  0.3146  0.4254  -2.2717   0.0000   0.0000   0.0000   0.3431
   7.200   1.5053   0.00952   0.00425  -0.1602  0.3145  0.4258  -2.2892   0.0000   0.0000   0.0000   0.3421
   7.300   1.5159   0.00956   0.00429  -0.1602  0.3142  0.4261  -2.3068   0.0000   0.0000   0.0000   0.3412
   7.400   1.5265   0.00960   0.00434  -0.1601  0.3140  0.4263  -2.3243   0.0000   0.0000   0.0000   0.3402
   7.500   1.5371   0.00963   0.00439  -0.1600  0.3136  0.4266  -2.3419   0.0000   0.0000   0.0000   0.3393
   7.600   1.5476   0.00967   0.00444  -0.1599  0.3132  0.4268  -2.3594   0.0000   0.0000   0.0000   0.3384
   7.700   1.5581   0.00971   0.00449  -0.1598  0.3126  0.4270  -2.3785   0.0000   0.0000   0.0000   0.3375
   7.800   1.5683   0.00975   0.00454  -0.1597  0.3119  0.4271  -2.3982   0.0000   0.0000   0.0000   0.3366
   7.900   1.5784   0.00980   0.00459  -0.1595  0.3110  0.4272  -2.4178   0.0000   0.0000   0.0000   0.3356
   8.000   1.5883   0.00985   0.00464  -0.1593  0.3098  0.4274  -2.4371   0.0000   0.0000   0.0000   0.3347
   8.100   1.5979   0.00990   0.00469  -0.1591  0.3085  0.4275  -2.4563   0.0000   0.0000   0.0000   0.3338
   8.200   1.6074   0.00996   0.00475  -0.1588  0.3071  0.4276  -2.4753   0.0000   0.0000   0.0000   0.3329
   8.300   1.6166   0.01002   0.00481  -0.1584  0.3055  0.4277  -2.4941   0.0000   0.0000   0.0000   0.3319
   8.400   1.6253   0.01011   0.00488  -0.1580  0.3031  0.4278  -2.5123   0.0000   0.0000   0.0000   0.3310
   8.500   1.6329   0.01023   0.00498  -0.1574  0.2990  0.4278  -2.5295   0.0000   0.0000   0.0000   0.3300
   8.600   1.6399   0.01040   0.00509  -0.1567  0.2933  0.4279  -2.5458   0.0000   0.0000   0.0000   0.3290
   8.700   1.6471   0.01057   0.00521  -0.1561  0.2855  0.4280  -2.5625   0.0000   0.0000   0.0000   0.3280
   8.800   1.6549   0.01072   0.00532  -0.1555  0.2774  0.4280  -2.5803   0.0000   0.0000   0.0000   0.3270
   8.900   1.6637   0.01080   0.00541  -0.1551  0.2737  0.4281  -2.6015   0.0000   0.0000   0.0000   0.3261
   9.000   1.6733   0.01086   0.00548  -0.1549  0.2731  0.4282  -2.6237   0.0000   0.0000   0.0000   0.3253
   9.100   1.6829   0.01092   0.00554  -0.1546  0.2725  0.4282  -2.6459   0.0000   0.0000   0.0000   0.3244
   9.200   1.6922   0.01098   0.00562  -0.1543  0.2716  0.4283  -2.6679   0.0000   0.0000   0.0000   0.3236
   9.300   1.7012   0.01106   0.00569  -0.1540  0.2700  0.4295  -2.6896   0.0000   0.0000   0.0000   0.3227
   9.400   1.7094   0.01117   0.00579  -0.1535  0.2670  0.4313  -2.7106   0.0000   0.0000   0.0000   0.3219
   9.500   1.7157   0.01137   0.00594  -0.1527  0.2611  0.4331  -2.7319   0.0000   0.0000   0.0000   0.3209
   9.600   1.7201   0.01164   0.00615  -0.1516  0.2533  0.4349  -2.7508   0.0000   0.0000   0.0000   0.3199
   9.700   1.7254   0.01190   0.00634  -0.1507  0.2443  0.4370  -2.7706   0.0000   0.0000   0.0000   0.3189
   9.900   1.7358   0.01240   0.00677  -0.1488  0.2254  0.4422  -2.8106   0.0000   0.0000   0.0000   0.3169
  10.000   1.7394   0.01272   0.00703  -0.1476  0.2175  0.4452  -2.8283   0.0000   0.0000   0.0000   0.3159
  10.100   1.7432   0.01304   0.00729  -0.1465  0.2093  0.4486  -2.8463   0.0000   0.0000   0.0000   0.3149
  10.200   1.7486   0.01327   0.00749  -0.1456  0.2002  0.4522  -2.8673   0.0000   0.0000   0.0000   0.3139
  10.300   1.7558   0.01341   0.00763  -0.1450  0.1968  0.4557  -2.8940   0.0000   0.0000   0.0000   0.3130
  10.400   1.7629   0.01355   0.00778  -0.1444  0.1948  0.4589  -2.9206   0.0000   0.0000   0.0000   0.3122
  10.500   1.7691   0.01374   0.00797  -0.1436  0.1918  0.4617  -2.9458   0.0000   0.0000   0.0000   0.3113
  10.600   1.7733   0.01401   0.00822  -0.1426  0.1868  0.4642  -2.9681   0.0000   0.0000   0.0000   0.3103
  10.700   1.7756   0.01439   0.00854  -0.1412  0.1801  0.4664  -2.9879   0.0000   0.0000   0.0000   0.3093
  10.800   1.7785   0.01475   0.00886  -0.1400  0.1726  0.4686  -3.0119   0.0000   0.0000   0.0000   0.3083
  10.900   1.7834   0.01502   0.00910  -0.1391  0.1639  0.4708  -3.0396   0.0000   0.0000   0.0000   0.3074
  11.000   1.7898   0.01521   0.00930  -0.1384  0.1611  0.4731  -3.0703   0.0000   0.0000   0.0000   0.3066
  11.100   1.7937   0.01550   0.00957  -0.1374  0.1572  0.4750  -3.0966   0.0000   0.0000   0.0000   0.3056
  11.200   1.7936   0.01594   0.00997  -0.1357  0.1512  0.4765  -3.1154   0.0000   0.0000   0.0000   0.3045
  11.300   1.7923   0.01647   0.01044  -0.1339  0.1440  0.4778  -3.1321   0.0000   0.0000   0.0000   0.3034
  11.400   1.7936   0.01691   0.01083  -0.1325  0.1350  0.4791  -3.1536   0.0000   0.0000   0.0000   0.3024
  11.500   1.7988   0.01717   0.01109  -0.1318  0.1305  0.4804  -3.1944   0.0000   0.0000   0.0000   0.3015
  11.600   1.8038   0.01745   0.01136  -0.1310  0.1281  0.4814  -3.2509   0.0000   0.0000   0.0000   0.3007
  11.700   1.8064   0.01783   0.01173  -0.1298  0.1249  0.4821  -3.2995   0.0000   0.0000   0.0000   0.2998
  11.900   1.8037   0.01899   0.01282  -0.1266  0.1143  0.4891  -3.3704   0.0000   0.0000   0.0000   0.2977
  12.000   1.8045   0.01951   0.01331  -0.1254  0.1078  0.4949  -3.4129   0.0000   0.0000   0.0000   0.2968
  12.100   1.8074   0.01991   0.01371  -0.1244  0.1024  0.5016  -3.4634   0.0000   0.0000   0.0000   0.2960
  12.200   1.8098   0.02033   0.01414  -0.1234  0.1004  0.5076  -3.5124   0.0000   0.0000   0.0000   0.2951
  12.300   1.8124   0.02076   0.01459  -0.1225  0.0983  0.5130  -3.5620   0.0000   0.0000   0.0000   0.2943
  12.400   1.8112   0.02143   0.01524  -0.1211  0.0938  0.5174  -3.5985   0.0000   0.0000   0.0000   0.2934
  12.500   1.8087   0.02215   0.01595  -0.1197  0.0895  0.5214  -3.6304   0.0000   0.0000   0.0000   0.2925
  12.600   1.8050   0.02294   0.01673  -0.1182  0.0856  0.5250  -3.6578   0.0000   0.0000   0.0000   0.2916
  12.700   1.8046   0.02362   0.01740  -0.1171  0.0801  0.5289  -3.6971   0.0000   0.0000   0.0000   0.2908
  12.800   1.8073   0.02412   0.01791  -0.1163  0.0765  0.5330  -3.7481   0.0000   0.0000   0.0000   0.2900
  12.900   1.8095   0.02468   0.01848  -0.1156  0.0747  0.5365  -3.7971   0.0000   0.0000   0.0000   0.2893
  13.100   1.8067   0.02632   0.02015  -0.1136  0.0699  0.5528  -3.8693   0.0000   0.0000   0.0000   0.2879
  13.200   1.8041   0.02730   0.02113  -0.1125  0.0664  0.5638  -3.9008   0.0000   0.0000   0.0000   0.2872
  13.300   1.7999   0.02844   0.02228  -0.1115  0.0633  0.5726  -3.9260   0.0000   0.0000   0.0000   0.2865
  13.400   1.7970   0.02951   0.02337  -0.1106  0.0596  0.5807  -3.9563   0.0000   0.0000   0.0000   0.2859
  13.500   1.7977   0.03033   0.02420  -0.1100  0.0551  0.5889  -4.0001   0.0000   0.0000   0.0000   0.2853
  13.600   1.7996   0.03106   0.02494  -0.1095  0.0536  0.5955  -4.0490   0.0000   0.0000   0.0000   0.2847
  13.700   1.7995   0.03199   0.02591  -0.1090  0.0522  0.6139  -4.0902   0.0000   0.0000   0.0000   0.2842
  13.800   1.7973   0.03315   0.02713  -0.1084  0.0510  0.6299  -4.1228   0.0000   0.0000   0.0000   0.2837
  13.900   1.7936   0.03444   0.02844  -0.1078  0.0482  0.6411  -4.1498   0.0000   0.0000   0.0000   0.2832
  14.000   1.7897   0.03576   0.02976  -0.1071  0.0454  0.6495  -4.1763   0.0000   0.0000   0.0000   0.2828
  14.100   1.7831   0.03742   0.03146  -0.1065  0.0434  0.6590  -4.1913   0.0000   0.0000   0.0000   0.2824
  14.200   1.7787   0.03891   0.03298  -0.1061  0.0407  0.6787  -4.2149   0.0000   0.0000   0.0000   0.2821
  14.300   1.7776   0.04006   0.03417  -0.1058  0.0370  0.6967  -4.2519   0.0000   0.0000   0.0000   0.2817
  14.400   1.7781   0.04107   0.03521  -0.1055  0.0353  0.7120  -4.2953   0.0000   0.0000   0.0000   0.2813
  14.500   1.7776   0.04221   0.03642  -0.1053  0.0342  0.7418  -4.3347   0.0000   0.0000   0.0000   0.2809
  14.700   1.7690   0.04542   0.03977  -0.1049  0.0323  0.7915  -4.3821   0.0000   0.0000   0.0000   0.2805
  14.800   1.7663   0.04671   0.04126  -0.1047  0.0306  0.8910  -4.4124   0.0000   0.0000   0.0000   0.2802
  14.900   1.7607   0.04787   0.04255  -0.1038  0.0294  1.0000  -4.4316   0.0000   0.0000   0.0000   0.2796
  15.000   1.7524   0.04999   0.04472  -0.1037  0.0287  1.0000  -4.4380   0.0000   0.0000   0.0000   0.2796
  15.100   1.7457   0.05183   0.04657  -0.1036  0.0277  1.0000  -4.4514   0.0000   0.0000   0.0000   0.2795
  15.200   1.7417   0.05333   0.04809  -0.1034  0.0262  1.0000  -4.4762   0.0000   0.0000   0.0000   0.2793
  15.300   1.7391   0.05474   0.04951  -0.1033  0.0245  1.0000  -4.5063   0.0000   0.0000   0.0000   0.2790
  15.400   1.7369   0.05613   0.05090  -0.1032  0.0225  1.0000  -4.5388   0.0000   0.0000   0.0000   0.2788
  15.500   1.7293   0.05834   0.05317  -0.1033  0.0217  1.0000  -4.5471   0.0000   0.0000   0.0000   0.2789
  15.600   1.7239   0.06033   0.05519  -0.1035  0.0210  1.0000  -4.5647   0.0000   0.0000   0.0000   0.2789
  15.700   1.7231   0.06166   0.05654  -0.1035  0.0206  1.0000  -4.6027   0.0000   0.0000   0.0000   0.2787
  15.800   1.7228   0.06293   0.05782  -0.1035  0.0202  1.0000  -4.6429   0.0000   0.0000   0.0000   0.2784
  15.900   1.7225   0.06421   0.05912  -0.1035  0.0197  1.0000  -4.6834   0.0000   0.0000   0.0000   0.2782
  16.000   1.7286   0.06472   0.05968  -0.1035  0.0211  1.0000  -4.7549   0.0000   0.0000   0.0000   0.2778
  16.100   1.7293   0.06590   0.06089  -0.1036  0.0209  1.0000  -4.8003   0.0000   0.0000   0.0000   0.2775
  16.200   1.7289   0.06723   0.06224  -0.1037  0.0207  1.0000  -4.8409   0.0000   0.0000   0.0000   0.2774
  16.300   1.7142   0.07069   0.06577  -0.1043  0.0207  1.0000  -4.8157   0.0000   0.0000   0.0000   0.2779
  16.400   1.7120   0.07234   0.06745  -0.1045  0.0205  1.0000  -4.8477   0.0000   0.0000   0.0000   0.2779
  16.500   1.7117   0.07370   0.06883  -0.1046  0.0202  1.0000  -4.8882   0.0000   0.0000   0.0000   0.2777
  16.600   1.7116   0.07502   0.07016  -0.1047  0.0198  1.0000  -4.9299   0.0000   0.0000   0.0000   0.2776
  16.700   1.7112   0.07637   0.07153  -0.1049  0.0193  1.0000  -4.9702   0.0000   0.0000   0.0000   0.2774
  16.800   1.7113   0.07766   0.07283  -0.1050  0.0190  1.0000  -5.0129   0.0000   0.0000   0.0000   0.2772
  17.400   1.6631   0.09256   0.08787  -0.1080  0.0097  1.0000  -5.0314   0.0000   0.0000   0.0000   0.2792
  17.500   1.6632   0.09387   0.08918  -0.1083  0.0095  1.0000  -5.0732   0.0000   0.0000   0.0000   0.2791
  17.600   1.6628   0.09525   0.09058  -0.1086  0.0092  1.0000  -5.1120   0.0000   0.0000   0.0000   0.2791
  17.700   1.6613   0.09679   0.09214  -0.1090  0.0090  1.0000  -5.1456   0.0000   0.0000   0.0000   0.2791
  17.800   1.6575   0.09866   0.09404  -0.1095  0.0088  1.0000  -5.1681   0.0000   0.0000   0.0000   0.2793
  18.000   1.6353   0.10480   0.10030  -0.1116  0.0087  1.0000  -5.1365   0.0000   0.0000   0.0000   0.2810
  18.100   1.6356   0.10604   0.10154  -0.1119  0.0085  1.0000  -5.1785   0.0000   0.0000   0.0000   0.2809
  18.200   1.6361   0.10724   0.10276  -0.1123  0.0082  1.0000  -5.2214   0.0000   0.0000   0.0000   0.2808
  18.300   1.6366   0.10843   0.10395  -0.1126  0.0079  1.0000  -5.2646   0.0000   0.0000   0.0000   0.2808
  18.400   1.6371   0.10962   0.10514  -0.1130  0.0076  1.0000  -5.3076   0.0000   0.0000   0.0000   0.2807
  18.500   1.6373   0.11084   0.10637  -0.1133  0.0073  1.0000  -5.3494   0.0000   0.0000   0.0000   0.2806
  18.600   1.6372   0.11210   0.10764  -0.1138  0.0070  1.0000  -5.3892   0.0000   0.0000   0.0000   0.2806
  18.700   1.6367   0.11342   0.10896  -0.1142  0.0068  1.0000  -5.4268   0.0000   0.0000   0.0000   0.2807
  18.800   1.6356   0.11478   0.11035  -0.1147  0.0065  1.0000  -5.4611   0.0000   0.0000   0.0000   0.2808
  18.900   1.6336   0.11618   0.11176  -0.1153  0.0062  1.0000  -5.4898   0.0000   0.0000   0.0000   0.2809
  19.000   1.6079   0.12098   0.11670  -0.1177  0.0066  1.0000  -5.3891   0.0000   0.0000   0.0000   0.2833
  19.100   1.6076   0.12215   0.11788  -0.1182  0.0063  1.0000  -5.4261   0.0000   0.0000   0.0000   0.2834
  19.200   1.6081   0.12323   0.11896  -0.1187  0.0059  1.0000  -5.4675   0.0000   0.0000   0.0000   0.2834
  19.300   1.6091   0.12425   0.11998  -0.1191  0.0054  1.0000  -5.5110   0.0000   0.0000   0.0000   0.2833
  19.400   1.6104   0.12524   0.12098  -0.1195  0.0046  1.0000  -5.5540   0.0000   0.0000   0.0000   0.2833
  19.500   1.6099   0.12651   0.12225  -0.1200  0.0028  1.0000  -5.5472   0.0000   0.0000   0.0000   0.2833
  19.600   1.6119   0.12744   0.12319  -0.1204  0.0028  1.0000  -5.5956   0.0000   0.0000   0.0000   0.2832
  19.700   1.6137   0.12838   0.12415  -0.1208  0.0028  1.0000  -5.6437   0.0000   0.0000   0.0000   0.2831
  19.800   1.6155   0.12935   0.12514  -0.1212  0.0028  1.0000  -5.6913   0.0000   0.0000   0.0000   0.2830
  19.900   1.6171   0.13035   0.12615  -0.1217  0.0028  1.0000  -5.7379   0.0000   0.0000   0.0000   0.2829
  20.000   1.6188   0.13135   0.12717  -0.1221  0.0028  1.0000  -5.7853   0.0000   0.0000   0.0000   0.2828


