xflr5 v6.61

 Calculated polar for: NASA/LANGLEY NLF(1)-0416 AIRFOIL

 1 1 Reynolds number fixed          Mach number fixed         

 xtrf =   1.000 (top)        1.000 (bottom)
 Mach =   0.000     Re =     2.392 e 6     Ncrit =   9.000

  alpha     CL        CD       CDp       Cm    Top Xtr Bot Xtr   Cpmin    Chinge    XCp    
 ------- -------- --------- --------- -------- ------- ------- -------- --------- ---------
  -6.000  -0.2341   0.01000   0.00454  -0.0942  0.5907  0.0078  -2.5428   0.0000   0.0000   0.0000  -0.1692
  -5.900  -0.2227   0.00995   0.00449  -0.0943  0.5882  0.0076  -2.4623   0.0000   0.0000   0.0000  -0.1906
  -5.800  -0.2113   0.00991   0.00445  -0.0943  0.5849  0.0073  -2.3829   0.0000   0.0000   0.0000  -0.2140
  -5.700  -0.2001   0.00988   0.00440  -0.0944  0.5806  0.0072  -2.3049   0.0000   0.0000   0.0000  -0.2397
  -4.900  -0.1099   0.00859   0.00256  -0.0951  0.5394  0.0070  -1.8100   0.0000   0.0000   0.0000  -0.6417
  -4.800  -0.0982   0.00854   0.00250  -0.0952  0.5378  0.0071  -1.7370   0.0000   0.0000   0.0000  -0.7480
  -4.700  -0.0864   0.00849   0.00244  -0.0953  0.5359  0.0090  -1.6804   0.0000   0.0000   0.0000  -0.8836
  -4.600  -0.0748   0.00846   0.00241  -0.0954  0.5336  0.0106  -1.6071   0.0000   0.0000   0.0000  -1.0597
  -4.500  -0.0632   0.00843   0.00238  -0.0955  0.5309  0.0124  -1.5332   0.0000   0.0000   0.0000  -1.2995
  -4.400  -0.0517   0.00836   0.00231  -0.0956  0.5280  0.0150  -1.4615   0.0000   0.0000   0.0000  -1.6464
  -4.300  -0.0402   0.00833   0.00227  -0.0957  0.5249  0.0158  -1.3874   0.0000   0.0000   0.0000  -2.1894
  -4.200  -0.0287   0.00830   0.00223  -0.0958  0.5216  0.0167  -1.3143   0.0000   0.0000   0.0000  -3.1650
  -4.100  -0.0172   0.00827   0.00219  -0.0959  0.5181  0.0176  -1.2423   0.0000   0.0000   0.0000  -5.4399
  -4.000  -0.0057   0.00825   0.00216  -0.0960  0.5143  0.0185  -1.1872   0.0000   0.0000   0.0000  -16.8677
  -3.900   0.0058   0.00822   0.00212  -0.0961  0.5099  0.0195  -1.1398   0.0000   0.0000   0.0000  17.1226
  -3.800   0.0175   0.00807   0.00204  -0.0963  0.5052  0.0356  -1.0930   0.0000   0.0000   0.0000   5.8603
  -3.700   0.0292   0.00799   0.00198  -0.0965  0.5007  0.0470  -1.0469   0.0000   0.0000   0.0000   3.6190
  -3.600   0.0410   0.00789   0.00192  -0.0968  0.4966  0.0572  -1.0013   0.0000   0.0000   0.0000   2.6558
  -3.500   0.0527   0.00780   0.00188  -0.0970  0.4930  0.0706  -0.9562   0.0000   0.0000   0.0000   2.1215
  -3.400   0.0647   0.00768   0.00181  -0.0972  0.4916  0.0837  -0.9114   0.0000   0.0000   0.0000   1.7784
  -3.300   0.0767   0.00758   0.00177  -0.0975  0.4913  0.1001  -0.8669   0.0000   0.0000   0.0000   1.5412
  -3.200   0.0888   0.00745   0.00170  -0.0978  0.4909  0.1148  -0.8229   0.0000   0.0000   0.0000   1.3679
  -3.100   0.1009   0.00734   0.00166  -0.0981  0.4904  0.1340  -0.7794   0.0000   0.0000   0.0000   1.2361
  -3.000   0.1130   0.00721   0.00160  -0.0984  0.4898  0.1499  -0.7363   0.0000   0.0000   0.0000   1.1324
  -2.900   0.1252   0.00707   0.00156  -0.0988  0.4890  0.1752  -0.6938   0.0000   0.0000   0.0000   1.0486
  -2.800   0.1374   0.00695   0.00151  -0.0991  0.4880  0.1981  -0.6518   0.0000   0.0000   0.0000   0.9797
  -2.700   0.1498   0.00675   0.00144  -0.0996  0.4869  0.2320  -0.6468   0.0000   0.0000   0.0000   0.9218
  -2.600   0.1623   0.00654   0.00137  -0.1001  0.4857  0.2732  -0.6552   0.0000   0.0000   0.0000   0.8727
  -2.500   0.1747   0.00637   0.00132  -0.1005  0.4843  0.3092  -0.6636   0.0000   0.0000   0.0000   0.8305
  -2.400   0.1868   0.00631   0.00129  -0.1008  0.4829  0.3236  -0.6718   0.0000   0.0000   0.0000   0.7940
  -2.300   0.1991   0.00618   0.00125  -0.1011  0.4813  0.3536  -0.6801   0.0000   0.0000   0.0000   0.7618
  -2.200   0.2111   0.00611   0.00122  -0.1014  0.4795  0.3695  -0.6884   0.0000   0.0000   0.0000   0.7334
  -2.100   0.2233   0.00601   0.00119  -0.1017  0.4774  0.3971  -0.6967   0.0000   0.0000   0.0000   0.7081
  -2.000   0.2355   0.00591   0.00116  -0.1020  0.4752  0.4236  -0.7050   0.0000   0.0000   0.0000   0.6855
  -1.900   0.2481   0.00570   0.00110  -0.1026  0.4727  0.4790  -0.7135   0.0000   0.0000   0.0000   0.6652
  -1.800   0.2608   0.00546   0.00106  -0.1031  0.4699  0.5492  -0.7222   0.0000   0.0000   0.0000   0.6468
  -1.700   0.2728   0.00539   0.00115  -0.1034  0.4668  0.5988  -0.7314   0.0000   0.0000   0.0000   0.6298
  -1.600   0.2844   0.00542   0.00120  -0.1034  0.4634  0.6092  -0.7405   0.0000   0.0000   0.0000   0.6142
  -1.500   0.2960   0.00545   0.00121  -0.1035  0.4600  0.6118  -0.7496   0.0000   0.0000   0.0000   0.5998
  -1.400   0.3077   0.00548   0.00123  -0.1035  0.4568  0.6137  -0.7587   0.0000   0.0000   0.0000   0.5865
  -1.300   0.3194   0.00551   0.00124  -0.1036  0.4541  0.6152  -0.7678   0.0000   0.0000   0.0000   0.5742
  -1.200   0.3313   0.00551   0.00119  -0.1038  0.4517  0.6094  -0.7770   0.0000   0.0000   0.0000   0.5628
  -1.100   0.3429   0.00555   0.00123  -0.1038  0.4494  0.6149  -0.7861   0.0000   0.0000   0.0000   0.5520
  -1.000   0.3545   0.00559   0.00127  -0.1039  0.4474  0.6172  -0.7952   0.0000   0.0000   0.0000   0.5420
  -0.900   0.3662   0.00562   0.00129  -0.1039  0.4453  0.6180  -0.8044   0.0000   0.0000   0.0000   0.5327
  -0.800   0.3779   0.00565   0.00131  -0.1040  0.4433  0.6184  -0.8135   0.0000   0.0000   0.0000   0.5239
  -0.700   0.3897   0.00568   0.00133  -0.1041  0.4422  0.6188  -0.8228   0.0000   0.0000   0.0000   0.5156
  -0.600   0.4015   0.00570   0.00135  -0.1042  0.4421  0.6191  -0.8326   0.0000   0.0000   0.0000   0.5078
  -0.500   0.4133   0.00572   0.00137  -0.1043  0.4420  0.6194  -0.8432   0.0000   0.0000   0.0000   0.5004
  -0.400   0.4252   0.00574   0.00139  -0.1044  0.4419  0.6197  -0.8538   0.0000   0.0000   0.0000   0.4935
  -0.300   0.4370   0.00576   0.00141  -0.1045  0.4417  0.6198  -0.8644   0.0000   0.0000   0.0000   0.4869
  -0.200   0.4488   0.00578   0.00144  -0.1046  0.4415  0.6200  -0.8750   0.0000   0.0000   0.0000   0.4806
  -0.100   0.4606   0.00580   0.00146  -0.1046  0.4413  0.6201  -0.8856   0.0000   0.0000   0.0000   0.4747
   0.000   0.4724   0.00581   0.00146  -0.1048  0.4411  0.6214  -0.8963   0.0000   0.0000   0.0000   0.4691
   0.100   0.4843   0.00580   0.00145  -0.1049  0.4409  0.6231  -0.9070   0.0000   0.0000   0.0000   0.4638
   0.200   0.4962   0.00579   0.00145  -0.1050  0.4406  0.6246  -0.9177   0.0000   0.0000   0.0000   0.4588
   0.300   0.5080   0.00579   0.00145  -0.1052  0.4402  0.6258  -0.9284   0.0000   0.0000   0.0000   0.4540
   0.400   0.5199   0.00579   0.00145  -0.1053  0.4397  0.6269  -0.9392   0.0000   0.0000   0.0000   0.4494
   0.500   0.5317   0.00579   0.00145  -0.1054  0.4391  0.6283  -0.9503   0.0000   0.0000   0.0000   0.4450
   0.600   0.5436   0.00580   0.00145  -0.1055  0.4384  0.6301  -0.9624   0.0000   0.0000   0.0000   0.4408
   0.700   0.5554   0.00580   0.00146  -0.1057  0.4375  0.6320  -0.9746   0.0000   0.0000   0.0000   0.4367
   0.800   0.5671   0.00581   0.00147  -0.1058  0.4366  0.6338  -0.9868   0.0000   0.0000   0.0000   0.4329
   0.900   0.5789   0.00582   0.00148  -0.1059  0.4356  0.6354  -0.9990   0.0000   0.0000   0.0000   0.4291
   1.000   0.5906   0.00584   0.00149  -0.1060  0.4344  0.6370  -1.0112   0.0000   0.0000   0.0000   0.4256
   1.100   0.6023   0.00585   0.00151  -0.1061  0.4332  0.6385  -1.0234   0.0000   0.0000   0.0000   0.4221
   1.200   0.6140   0.00587   0.00153  -0.1062  0.4317  0.6399  -1.0356   0.0000   0.0000   0.0000   0.4188
   1.300   0.6256   0.00590   0.00155  -0.1062  0.4301  0.6412  -1.0478   0.0000   0.0000   0.0000   0.4156
   1.400   0.6372   0.00592   0.00157  -0.1063  0.4283  0.6423  -1.0601   0.0000   0.0000   0.0000   0.4125
   1.500   0.6487   0.00595   0.00159  -0.1064  0.4263  0.6432  -1.0740   0.0000   0.0000   0.0000   0.4096
   1.600   0.6602   0.00598   0.00161  -0.1065  0.4240  0.6440  -1.0879   0.0000   0.0000   0.0000   0.4067
   1.700   0.6716   0.00602   0.00163  -0.1065  0.4213  0.6446  -1.1017   0.0000   0.0000   0.0000   0.4039
   1.800   0.6830   0.00606   0.00165  -0.1066  0.4182  0.6454  -1.1156   0.0000   0.0000   0.0000   0.4013
   1.900   0.6944   0.00610   0.00167  -0.1066  0.4144  0.6462  -1.1294   0.0000   0.0000   0.0000   0.3986
   2.000   0.7058   0.00615   0.00171  -0.1066  0.4102  0.6470  -1.1433   0.0000   0.0000   0.0000   0.3961
   2.100   0.7172   0.00619   0.00174  -0.1067  0.4058  0.6478  -1.1572   0.0000   0.0000   0.0000   0.3937
   2.200   0.7286   0.00622   0.00176  -0.1067  0.4021  0.6486  -1.1712   0.0000   0.0000   0.0000   0.3913
   2.300   0.7401   0.00626   0.00179  -0.1068  0.3992  0.6492  -1.1853   0.0000   0.0000   0.0000   0.3890
   2.400   0.7516   0.00629   0.00182  -0.1069  0.3967  0.6499  -1.1993   0.0000   0.0000   0.0000   0.3868
   2.500   0.7630   0.00632   0.00185  -0.1069  0.3944  0.6506  -1.2134   0.0000   0.0000   0.0000   0.3846
   2.600   0.7747   0.00634   0.00187  -0.1070  0.3942  0.6512  -1.2278   0.0000   0.0000   0.0000   0.3825
   2.700   0.7864   0.00635   0.00189  -0.1071  0.3940  0.6518  -1.2440   0.0000   0.0000   0.0000   0.3805
   2.800   0.7981   0.00637   0.00191  -0.1072  0.3938  0.6524  -1.2605   0.0000   0.0000   0.0000   0.3785
   2.900   0.8097   0.00639   0.00193  -0.1073  0.3934  0.6531  -1.2770   0.0000   0.0000   0.0000   0.3766
   3.000   0.8214   0.00640   0.00196  -0.1074  0.3930  0.6537  -1.2936   0.0000   0.0000   0.0000   0.3747
   3.100   0.8330   0.00642   0.00198  -0.1075  0.3925  0.6543  -1.3102   0.0000   0.0000   0.0000   0.3729
   3.200   0.8446   0.00644   0.00200  -0.1076  0.3920  0.6548  -1.3269   0.0000   0.0000   0.0000   0.3711
   3.300   0.8562   0.00646   0.00203  -0.1077  0.3915  0.6553  -1.3435   0.0000   0.0000   0.0000   0.3694
   3.400   0.8678   0.00648   0.00205  -0.1077  0.3908  0.6558  -1.3602   0.0000   0.0000   0.0000   0.3677
   3.500   0.8794   0.00650   0.00207  -0.1078  0.3899  0.6562  -1.3794   0.0000   0.0000   0.0000   0.3661
   3.600   0.8909   0.00652   0.00209  -0.1079  0.3889  0.6565  -1.3987   0.0000   0.0000   0.0000   0.3645
   3.700   0.9025   0.00654   0.00211  -0.1080  0.3875  0.6568  -1.4180   0.0000   0.0000   0.0000   0.3629
   3.800   0.9139   0.00657   0.00213  -0.1081  0.3856  0.6572  -1.4374   0.0000   0.0000   0.0000   0.3614
   3.900   0.9253   0.00660   0.00216  -0.1081  0.3830  0.6575  -1.4567   0.0000   0.0000   0.0000   0.3599
   4.000   0.9364   0.00665   0.00218  -0.1082  0.3791  0.6579  -1.4759   0.0000   0.0000   0.0000   0.3584
   4.100   0.9473   0.00672   0.00222  -0.1081  0.3736  0.6584  -1.4949   0.0000   0.0000   0.0000   0.3569
   4.200   0.9580   0.00681   0.00227  -0.1081  0.3668  0.6590  -1.5138   0.0000   0.0000   0.0000   0.3555
   4.300   0.9688   0.00690   0.00231  -0.1080  0.3584  0.6595  -1.5328   0.0000   0.0000   0.0000   0.3541
   4.400   0.9798   0.00696   0.00236  -0.1080  0.3501  0.6601  -1.5520   0.0000   0.0000   0.0000   0.3527
   4.500   0.9911   0.00700   0.00239  -0.1081  0.3477  0.6606  -1.5717   0.0000   0.0000   0.0000   0.3514
   4.600   1.0025   0.00703   0.00243  -0.1081  0.3465  0.6610  -1.5914   0.0000   0.0000   0.0000   0.3501
   4.700   1.0138   0.00707   0.00246  -0.1082  0.3450  0.6614  -1.6115   0.0000   0.0000   0.0000   0.3488
   4.800   1.0251   0.00711   0.00250  -0.1082  0.3429  0.6618  -1.6345   0.0000   0.0000   0.0000   0.3476
   4.900   1.0362   0.00716   0.00253  -0.1082  0.3398  0.6621  -1.6575   0.0000   0.0000   0.0000   0.3463
   5.000   1.0470   0.00723   0.00258  -0.1082  0.3347  0.6624  -1.6802   0.0000   0.0000   0.0000   0.3451
   5.100   1.0574   0.00734   0.00264  -0.1081  0.3276  0.6627  -1.7025   0.0000   0.0000   0.0000   0.3439
   5.200   1.0677   0.00746   0.00270  -0.1080  0.3185  0.6630  -1.7246   0.0000   0.0000   0.0000   0.3427
   5.300   1.0782   0.00757   0.00282  -0.1079  0.3053  0.6632  -1.7474   0.0000   0.0000   0.0000   0.3415
   5.400   1.0894   0.00761   0.00286  -0.1080  0.3029  0.6635  -1.7708   0.0000   0.0000   0.0000   0.3404
   5.500   1.1005   0.00766   0.00290  -0.1080  0.3012  0.6638  -1.7944   0.0000   0.0000   0.0000   0.3393
   5.600   1.1116   0.00771   0.00294  -0.1080  0.2988  0.6641  -1.8182   0.0000   0.0000   0.0000   0.3382
   5.700   1.1224   0.00778   0.00300  -0.1080  0.2949  0.6643  -1.8456   0.0000   0.0000   0.0000   0.3371
   5.800   1.1321   0.00795   0.00309  -0.1078  0.2853  0.6646  -1.8716   0.0000   0.0000   0.0000   0.3360
   5.900   1.1414   0.00815   0.00321  -0.1076  0.2697  0.6649  -1.8971   0.0000   0.0000   0.0000   0.3349
   6.000   1.1519   0.00825   0.00328  -0.1075  0.2603  0.6651  -1.9244   0.0000   0.0000   0.0000   0.3338
   6.100   1.1623   0.00835   0.00335  -0.1074  0.2548  0.6654  -1.9517   0.0000   0.0000   0.0000   0.3328
   6.200   1.1717   0.00854   0.00347  -0.1072  0.2451  0.6657  -1.9777   0.0000   0.0000   0.0000   0.3317
   6.300   1.1810   0.00874   0.00359  -0.1069  0.2337  0.6659  -2.0035   0.0000   0.0000   0.0000   0.3307
   6.400   1.1912   0.00886   0.00368  -0.1068  0.2226  0.6662  -2.0308   0.0000   0.0000   0.0000   0.3297
   6.500   1.2020   0.00893   0.00374  -0.1068  0.2197  0.6664  -2.0590   0.0000   0.0000   0.0000   0.3287
   6.600   1.2123   0.00903   0.00382  -0.1067  0.2155  0.6666  -2.0893   0.0000   0.0000   0.0000   0.3278
   6.700   1.2217   0.00921   0.00395  -0.1064  0.2071  0.6669  -2.1210   0.0000   0.0000   0.0000   0.3268
   6.800   1.2305   0.00944   0.00409  -0.1061  0.1960  0.6671  -2.1519   0.0000   0.0000   0.0000   0.3257
   6.900   1.2404   0.00958   0.00419  -0.1059  0.1845  0.6673  -2.1847   0.0000   0.0000   0.0000   0.3248
   7.000   1.2510   0.00965   0.00426  -0.1059  0.1824  0.6674  -2.2190   0.0000   0.0000   0.0000   0.3239
   7.100   1.2616   0.00973   0.00433  -0.1058  0.1805  0.6676  -2.2534   0.0000   0.0000   0.0000   0.3230
   7.200   1.2719   0.00983   0.00441  -0.1057  0.1774  0.6677  -2.2875   0.0000   0.0000   0.0000   0.3221
   7.300   1.2818   0.00996   0.00452  -0.1056  0.1728  0.6679  -2.3210   0.0000   0.0000   0.0000   0.3212
   7.400   1.2911   0.01013   0.00464  -0.1053  0.1670  0.6680  -2.3537   0.0000   0.0000   0.0000   0.3203
   7.500   1.3005   0.01029   0.00476  -0.1051  0.1607  0.6682  -2.3866   0.0000   0.0000   0.0000   0.3194
   7.600   1.3104   0.01042   0.00486  -0.1049  0.1537  0.6683  -2.4205   0.0000   0.0000   0.0000   0.3185
   7.700   1.3207   0.01051   0.00494  -0.1048  0.1490  0.6684  -2.4554   0.0000   0.0000   0.0000   0.3177
   7.800   1.3312   0.01059   0.00502  -0.1048  0.1476  0.6686  -2.4907   0.0000   0.0000   0.0000   0.3169
   7.900   1.3414   0.01068   0.00510  -0.1047  0.1458  0.6687  -2.5258   0.0000   0.0000   0.0000   0.3160
   8.000   1.3513   0.01079   0.00520  -0.1045  0.1428  0.6688  -2.5605   0.0000   0.0000   0.0000   0.3152
   8.100   1.3607   0.01094   0.00532  -0.1043  0.1387  0.6689  -2.6003   0.0000   0.0000   0.0000   0.3144
   8.200   1.3697   0.01113   0.00546  -0.1040  0.1337  0.6690  -2.6409   0.0000   0.0000   0.0000   0.3135
   8.300   1.3788   0.01130   0.00560  -0.1037  0.1284  0.6691  -2.6818   0.0000   0.0000   0.0000   0.3127
   8.400   1.3883   0.01143   0.00571  -0.1035  0.1226  0.6691  -2.7240   0.0000   0.0000   0.0000   0.3118
   8.500   1.3990   0.01148   0.00581  -0.1035  0.1242  0.6692  -2.7703   0.0000   0.0000   0.0000   0.3111
   8.600   1.4088   0.01159   0.00591  -0.1033  0.1192  0.6693  -2.8244   0.0000   0.0000   0.0000   0.3103
   8.700   1.4189   0.01168   0.00600  -0.1032  0.1171  0.6694  -2.8799   0.0000   0.0000   0.0000   0.3095
   8.800   1.4289   0.01177   0.00610  -0.1030  0.1160  0.6695  -2.9357   0.0000   0.0000   0.0000   0.3088
   8.900   1.4387   0.01187   0.00620  -0.1029  0.1144  0.6695  -2.9914   0.0000   0.0000   0.0000   0.3080
   9.000   1.4481   0.01201   0.00632  -0.1026  0.1117  0.6696  -3.0462   0.0000   0.0000   0.0000   0.3073
   9.100   1.4568   0.01219   0.00647  -0.1023  0.1078  0.6697  -3.0995   0.0000   0.0000   0.0000   0.3065
   9.200   1.4649   0.01241   0.00665  -0.1019  0.1031  0.6697  -3.1515   0.0000   0.0000   0.0000   0.3056
   9.300   1.4732   0.01261   0.00681  -0.1015  0.0980  0.6698  -3.2042   0.0000   0.0000   0.0000   0.3048
   9.400   1.4820   0.01276   0.00695  -0.1011  0.0925  0.6698  -3.2704   0.0000   0.0000   0.0000   0.3040
   9.500   1.4914   0.01288   0.00706  -0.1009  0.0891  0.6699  -3.3450   0.0000   0.0000   0.0000   0.3033
   9.600   1.5009   0.01299   0.00717  -0.1007  0.0880  0.6699  -3.4205   0.0000   0.0000   0.0000   0.3026
   9.700   1.5101   0.01312   0.00730  -0.1004  0.0865  0.6700  -3.4957   0.0000   0.0000   0.0000   0.3018
   9.800   1.5188   0.01327   0.00744  -0.1001  0.0842  0.6700  -3.5696   0.0000   0.0000   0.0000   0.3011
   9.900   1.5268   0.01347   0.00762  -0.0997  0.0810  0.6700  -3.6415   0.0000   0.0000   0.0000   0.3003
  10.000   1.5342   0.01370   0.00781  -0.0991  0.0773  0.6701  -3.7115   0.0000   0.0000   0.0000   0.2994
  10.100   1.5418   0.01392   0.00799  -0.0986  0.0736  0.6701  -3.7824   0.0000   0.0000   0.0000   0.2986
  10.200   1.5499   0.01409   0.00815  -0.0982  0.0694  0.6706  -3.8561   0.0000   0.0000   0.0000   0.2979
  10.300   1.5586   0.01423   0.00827  -0.0979  0.0655  0.6715  -3.9326   0.0000   0.0000   0.0000   0.2972
  10.400   1.5676   0.01434   0.00838  -0.0976  0.0642  0.6723  -4.0110   0.0000   0.0000   0.0000   0.2965
  10.500   1.5764   0.01446   0.00851  -0.0973  0.0634  0.6730  -4.0893   0.0000   0.0000   0.0000   0.2958
  10.600   1.5848   0.01461   0.00864  -0.0970  0.0622  0.6737  -4.1667   0.0000   0.0000   0.0000   0.2950
  10.700   1.5924   0.01479   0.00882  -0.0965  0.0601  0.6743  -4.2413   0.0000   0.0000   0.0000   0.2943
  10.800   1.5987   0.01505   0.00904  -0.0958  0.0568  0.6749  -4.3109   0.0000   0.0000   0.0000   0.2934
  10.900   1.6039   0.01535   0.00930  -0.0949  0.0528  0.6754  -4.3764   0.0000   0.0000   0.0000   0.2925
  11.000   1.6096   0.01561   0.00952  -0.0941  0.0485  0.6759  -4.4447   0.0000   0.0000   0.0000   0.2917
  11.100   1.6159   0.01579   0.00969  -0.0934  0.0445  0.6764  -4.5155   0.0000   0.0000   0.0000   0.2908
  11.200   1.6222   0.01593   0.00984  -0.0926  0.0433  0.6768  -4.5876   0.0000   0.0000   0.0000   0.2900
  11.300   1.6282   0.01610   0.01000  -0.0918  0.0423  0.6773  -4.6587   0.0000   0.0000   0.0000   0.2891
  11.400   1.6335   0.01630   0.01020  -0.0909  0.0409  0.6777  -4.7273   0.0000   0.0000   0.0000   0.2882
  11.500   1.6378   0.01656   0.01045  -0.0899  0.0388  0.6781  -4.7917   0.0000   0.0000   0.0000   0.2872
  11.600   1.6406   0.01688   0.01074  -0.0886  0.0362  0.6785  -4.8505   0.0000   0.0000   0.0000   0.2862
  11.700   1.6433   0.01720   0.01104  -0.0873  0.0337  0.6789  -4.9086   0.0000   0.0000   0.0000   0.2852
  11.800   1.6470   0.01749   0.01131  -0.0862  0.0309  0.6793  -4.9710   0.0000   0.0000   0.0000   0.2842
  11.900   1.6518   0.01774   0.01155  -0.0853  0.0280  0.6796  -5.0388   0.0000   0.0000   0.0000   0.2834
  12.000   1.6574   0.01794   0.01176  -0.0846  0.0267  0.6800  -5.1104   0.0000   0.0000   0.0000   0.2825
  12.100   1.6626   0.01816   0.01198  -0.0838  0.0262  0.6803  -5.1811   0.0000   0.0000   0.0000   0.2817
  12.200   1.6656   0.01848   0.01233  -0.0826  0.0246  0.6807  -5.2406   0.0000   0.0000   0.0000   0.2808
  12.300   1.6685   0.01883   0.01267  -0.0815  0.0230  0.6810  -5.3014   0.0000   0.0000   0.0000   0.2798
  12.400   1.6690   0.01930   0.01313  -0.0801  0.0205  0.6813  -5.3514   0.0000   0.0000   0.0000   0.2788
  12.500   1.6688   0.01978   0.01360  -0.0786  0.0182  0.6816  -5.3981   0.0000   0.0000   0.0000   0.2778
  12.600   1.6701   0.02021   0.01402  -0.0774  0.0157  0.6819  -5.4519   0.0000   0.0000   0.0000   0.2768
  12.700   1.6738   0.02055   0.01435  -0.0765  0.0138  0.6822  -5.5167   0.0000   0.0000   0.0000   0.2760
  12.800   1.6776   0.02088   0.01469  -0.0757  0.0134  0.6824  -5.5824   0.0000   0.0000   0.0000   0.2752
  12.900   1.6808   0.02124   0.01506  -0.0748  0.0130  0.6827  -5.6460   0.0000   0.0000   0.0000   0.2744
  13.000   1.6843   0.02160   0.01543  -0.0740  0.0127  0.6830  -5.7110   0.0000   0.0000   0.0000   0.2736
  13.100   1.6880   0.02197   0.01581  -0.0732  0.0123  0.6833  -5.7770   0.0000   0.0000   0.0000   0.2729
  13.200   1.6912   0.02237   0.01622  -0.0724  0.0120  0.6835  -5.8412   0.0000   0.0000   0.0000   0.2721
  13.300   1.6935   0.02282   0.01668  -0.0715  0.0116  0.6838  -5.9020   0.0000   0.0000   0.0000   0.2714
  13.400   1.6963   0.02326   0.01713  -0.0707  0.0113  0.6841  -5.9729   0.0000   0.0000   0.0000   0.2706
  13.500   1.6993   0.02371   0.01759  -0.0700  0.0110  0.6843  -6.0452   0.0000   0.0000   0.0000   0.2699
  13.600   1.7016   0.02421   0.01810  -0.0693  0.0107  0.6846  -6.1143   0.0000   0.0000   0.0000   0.2692
  13.700   1.7029   0.02478   0.01869  -0.0685  0.0104  0.6849  -6.1778   0.0000   0.0000   0.0000   0.2685
  13.800   1.7048   0.02532   0.01925  -0.0677  0.0101  0.6851  -6.2446   0.0000   0.0000   0.0000   0.2679
  13.900   1.7069   0.02586   0.01980  -0.0670  0.0098  0.6854  -6.3128   0.0000   0.0000   0.0000   0.2672
  14.000   1.7079   0.02648   0.02044  -0.0663  0.0096  0.6856  -6.3753   0.0000   0.0000   0.0000   0.2666
  14.100   1.7087   0.02715   0.02113  -0.0657  0.0093  0.6859  -6.4361   0.0000   0.0000   0.0000   0.2659
  14.200   1.7106   0.02778   0.02177  -0.0651  0.0090  0.6861  -6.5036   0.0000   0.0000   0.0000   0.2654
  14.300   1.7129   0.02839   0.02239  -0.0646  0.0087  0.6864  -6.5738   0.0000   0.0000   0.0000   0.2648
  14.400   1.7140   0.02913   0.02315  -0.0641  0.0084  0.6867  -6.6365   0.0000   0.0000   0.0000   0.2643
  14.500   1.7147   0.02991   0.02396  -0.0636  0.0081  0.6869  -6.6976   0.0000   0.0000   0.0000   0.2638
  14.600   1.7167   0.03062   0.02468  -0.0632  0.0078  0.6872  -6.7659   0.0000   0.0000   0.0000   0.2633
  14.700   1.7190   0.03131   0.02539  -0.0629  0.0074  0.6875  -6.8364   0.0000   0.0000   0.0000   0.2628
  14.800   1.7205   0.03210   0.02620  -0.0625  0.0071  0.6877  -6.9018   0.0000   0.0000   0.0000   0.2624
  14.900   1.7204   0.03307   0.02719  -0.0622  0.0068  0.6880  -6.9574   0.0000   0.0000   0.0000   0.2619
  15.000   1.7219   0.03389   0.02803  -0.0620  0.0064  0.6883  -7.0231   0.0000   0.0000   0.0000   0.2615
  15.100   1.7240   0.03467   0.02883  -0.0617  0.0061  0.6886  -7.0916   0.0000   0.0000   0.0000   0.2611
  15.200   1.7259   0.03547   0.02966  -0.0615  0.0056  0.6889  -7.1580   0.0000   0.0000   0.0000   0.2607
  15.300   1.7241   0.03671   0.03092  -0.0613  0.0051  0.6891  -7.1977   0.0000   0.0000   0.0000   0.2604
  15.400   1.7246   0.03771   0.03195  -0.0612  0.0051  0.6894  -7.2581   0.0000   0.0000   0.0000   0.2601
  15.500   1.7260   0.03860   0.03287  -0.0610  0.0051  0.6897  -7.3248   0.0000   0.0000   0.0000   0.2597
  15.600   1.7276   0.03948   0.03377  -0.0609  0.0051  0.6900  -7.3926   0.0000   0.0000   0.0000   0.2594
  15.700   1.7290   0.04040   0.03471  -0.0608  0.0051  0.6903  -7.4592   0.0000   0.0000   0.0000   0.2591
  15.800   1.7261   0.04186   0.03622  -0.0608  0.0051  0.6906  -7.4983   0.0000   0.0000   0.0000   0.2589
  15.900   1.7260   0.04299   0.03737  -0.0608  0.0051  0.6909  -7.5550   0.0000   0.0000   0.0000   0.2587
  16.000   1.7268   0.04400   0.03841  -0.0608  0.0050  0.6913  -7.6180   0.0000   0.0000   0.0000   0.2584
  16.100   1.7277   0.04500   0.03943  -0.0607  0.0050  0.6916  -7.6818   0.0000   0.0000   0.0000   0.2581
  16.200   1.7283   0.04602   0.04048  -0.0607  0.0050  0.6920  -7.7445   0.0000   0.0000   0.0000   0.2579
  16.300   1.7243   0.04770   0.04221  -0.0609  0.0050  0.6923  -7.7753   0.0000   0.0000   0.0000   0.2578
  16.400   1.7224   0.04910   0.04364  -0.0610  0.0050  0.6926  -7.8208   0.0000   0.0000   0.0000   0.2577
  16.500   1.7223   0.05025   0.04481  -0.0611  0.0050  0.6930  -7.8784   0.0000   0.0000   0.0000   0.2575
  16.600   1.7225   0.05135   0.04595  -0.0611  0.0050  0.6934  -7.9379   0.0000   0.0000   0.0000   0.2573
  16.700   1.7224   0.05247   0.04709  -0.0612  0.0050  0.6938  -7.9961   0.0000   0.0000   0.0000   0.2570
  16.800   1.7215   0.05365   0.04830  -0.0613  0.0050  0.6942  -8.0487   0.0000   0.0000   0.0000   0.2569
  16.900   1.7127   0.05597   0.05068  -0.0618  0.0050  0.6945  -8.0463   0.0000   0.0000   0.0000   0.2571
  17.000   1.7107   0.05738   0.05212  -0.0620  0.0050  0.6948  -8.0909   0.0000   0.0000   0.0000   0.2570
  17.100   1.7101   0.05863   0.05340  -0.0622  0.0050  0.6953  -8.1451   0.0000   0.0000   0.0000   0.2568
  17.200   1.7098   0.05986   0.05466  -0.0623  0.0050  0.6957  -8.2010   0.0000   0.0000   0.0000   0.2567
  17.300   1.7094   0.06111   0.05594  -0.0625  0.0050  0.6962  -8.2568   0.0000   0.0000   0.0000   0.2566
  17.400   1.7087   0.06244   0.05729  -0.0627  0.0050  0.6966  -8.3104   0.0000   0.0000   0.0000   0.2565
  17.500   1.7001   0.06498   0.05989  -0.0634  0.0050  0.6969  -8.3069   0.0000   0.0000   0.0000   0.2568
  17.600   1.6951   0.06703   0.06198  -0.0640  0.0050  0.6973  -8.3290   0.0000   0.0000   0.0000   0.2570
  17.700   1.6941   0.06846   0.06344  -0.0643  0.0050  0.6978  -8.3800   0.0000   0.0000   0.0000   0.2569
  17.800   1.6938   0.06980   0.06481  -0.0646  0.0050  0.6983  -8.4353   0.0000   0.0000   0.0000   0.2569
  17.900   1.6935   0.07113   0.06617  -0.0649  0.0050  0.6988  -8.4914   0.0000   0.0000   0.0000   0.2568
  18.000   1.6934   0.07246   0.06753  -0.0652  0.0049  0.6994  -8.5487   0.0000   0.0000   0.0000   0.2567
  18.100   1.6926   0.07390   0.06903  -0.0656  0.0049  0.6999  -8.5969   0.0000   0.0000   0.0000   0.2567
  18.200   1.6912   0.07543   0.07059  -0.0660  0.0049  0.7004  -8.6443   0.0000   0.0000   0.0000   0.2567
  18.300   1.6750   0.07936   0.07459  -0.0674  0.0049  0.7005  -8.5816   0.0000   0.0000   0.0000   0.2576
  18.400   1.6728   0.08107   0.07634  -0.0680  0.0049  0.7010  -8.6216   0.0000   0.0000   0.0000   0.2578
  18.500   1.6723   0.08251   0.07781  -0.0684  0.0049  0.7015  -8.6744   0.0000   0.0000   0.0000   0.2578
  18.600   1.6722   0.08386   0.07919  -0.0688  0.0049  0.7021  -8.7309   0.0000   0.0000   0.0000   0.2577
  18.700   1.6722   0.08519   0.08054  -0.0692  0.0049  0.7027  -8.7883   0.0000   0.0000   0.0000   0.2577
  18.800   1.6722   0.08653   0.08191  -0.0696  0.0049  0.7032  -8.8454   0.0000   0.0000   0.0000   0.2577
  18.900   1.6720   0.08789   0.08330  -0.0700  0.0049  0.7038  -8.9015   0.0000   0.0000   0.0000   0.2577
  19.000   1.6718   0.08928   0.08472  -0.0705  0.0049  0.7043  -8.9571   0.0000   0.0000   0.0000   0.2577
  19.100   1.6709   0.09078   0.08625  -0.0710  0.0049  0.7049  -9.0072   0.0000   0.0000   0.0000   0.2578
  19.200   1.6688   0.09247   0.08798  -0.0716  0.0049  0.7054  -9.0477   0.0000   0.0000   0.0000   0.2579
  19.300   1.6482   0.09719   0.09279  -0.0737  0.0049  0.7054  -8.9413   0.0000   0.0000   0.0000   0.2595
  19.400   1.6474   0.09867   0.09430  -0.0743  0.0049  0.7059  -8.9904   0.0000   0.0000   0.0000   0.2596
  19.500   1.6476   0.09999   0.09564  -0.0748  0.0049  0.7065  -9.0483   0.0000   0.0000   0.0000   0.2596
  19.600   1.6480   0.10126   0.09694  -0.0753  0.0049  0.7071  -9.1081   0.0000   0.0000   0.0000   0.2596
  19.700   1.6485   0.10251   0.09821  -0.0758  0.0049  0.7077  -9.1683   0.0000   0.0000   0.0000   0.2597
  19.800   1.6489   0.10377   0.09950  -0.0763  0.0049  0.7084  -9.2279   0.0000   0.0000   0.0000   0.2597
  19.900   1.6491   0.10505   0.10081  -0.0769  0.0049  0.7090  -9.2860   0.0000   0.0000   0.0000   0.2597
  20.000   1.6490   0.10638   0.10217  -0.0774  0.0049  0.7096  -9.3414   0.0000   0.0000   0.0000   0.2598


