xflr5 v6.61

Plane name :        TaperPlane0.3
Polar name :        T1-50.0 m/s-VLM2
Freestream speed :  50.000 m/s


   alpha      Beta       CL          CDi        CDv        CD         CY         Cl         Cm         Cn        Cni       QInf        XCP
   -5.000     0.000  -0.045024   0.000072   0.007377   0.007450   0.000000  -0.000000  -0.165487  -0.000000  -0.000000   50.0000    -2.0446
   -4.500     0.000  -0.001009   0.000013   0.007060   0.007073   0.000000  -0.000000  -0.187622  -0.000000  -0.000000   50.0000  -103.3409
   -4.000     0.000   0.043016   0.000077   0.006712   0.006789   0.000000  -0.000000  -0.209775  -0.000000  -0.000000   50.0000     2.7079
   -3.500     0.000   0.087044   0.000264   0.006332   0.006597  -0.000000  -0.000000  -0.231940  -0.000000  -0.000000   50.0000     1.4783
   -3.000     0.000   0.131068   0.000574   0.005999   0.006574  -0.000000   0.000000  -0.254106   0.000000   0.000000   50.0000     1.0748
   -2.500     0.000   0.175082   0.001008   0.005784   0.006792  -0.000000   0.000000  -0.276268  -0.000000   0.000000   50.0000     0.8741
   -2.000     0.000   0.219080   0.001565   0.005629   0.007193  -0.000000   0.000000  -0.298419  -0.000000   0.000000   50.0000     0.7541
   -1.500     0.000   0.263054   0.002244   0.005530   0.007774  -0.000000   0.000000  -0.320555   0.000000   0.000000   50.0000     0.6742
   -1.000     0.000   0.306999   0.003047   0.005518   0.008564  -0.000000   0.000000  -0.342668   0.000000   0.000000   50.0000     0.6173
   -0.500     0.000   0.350907   0.003971   0.005545   0.009516  -0.000000   0.000000  -0.364755  -0.000000   0.000000   50.0000     0.5746
    0.000     0.000   0.394772   0.005018   0.005611   0.010629  -0.000000   0.000000  -0.386807  -0.000000   0.000000   50.0000     0.5414
    0.500     0.000   0.438588   0.006186   0.005686   0.011872  -0.000000   0.000000  -0.408820  -0.000000   0.000000   50.0000     0.5149
    1.000     0.000   0.482348   0.007475   0.005768   0.013243  -0.000000   0.000000  -0.430787  -0.000000   0.000000   50.0000     0.4932
    1.500     0.000   0.526046   0.008884   0.005848   0.014732  -0.000000   0.000000  -0.452700  -0.000000  -0.000000   50.0000     0.4752
    2.000     0.000   0.569674   0.010412   0.005933   0.016344  -0.000000   0.000000  -0.474554  -0.000000  -0.000000   50.0000     0.4599
    2.500     0.000   0.613227   0.012058   0.006021   0.018079  -0.000000   0.000000  -0.496341  -0.000000  -0.000000   50.0000     0.4469
    3.000     0.000   0.656698   0.013821   0.006107   0.019928  -0.000000   0.000000  -0.518055  -0.000000  -0.000000   50.0000     0.4355
    3.500     0.000   0.700082   0.015701   0.006195   0.021897  -0.000000   0.000000  -0.539690  -0.000000  -0.000000   50.0000     0.4257
    4.000     0.000   0.743370   0.017696   0.006298   0.023994  -0.000000   0.000000  -0.561238  -0.000000  -0.000000   50.0000     0.4170
    4.500     0.000   0.786558   0.019804   0.006408   0.026212  -0.000000   0.000000  -0.582695  -0.000000  -0.000000   50.0000     0.4092
    5.000     0.000   0.829638   0.022025   0.006519   0.028544  -0.000000   0.000000  -0.604052  -0.000000  -0.000000   50.0000     0.4023
    5.500     0.000   0.872605   0.024357   0.006641   0.030998  -0.000000   0.000000  -0.625305  -0.000000  -0.000000   50.0000     0.3961
    6.000     0.000   0.915453   0.026798   0.006785   0.033583  -0.000000   0.000000  -0.646446  -0.000000  -0.000000   50.0000     0.3905
    6.500     0.000   0.958174   0.029346   0.006962   0.036309  -0.000000   0.000000  -0.667472  -0.000000  -0.000000   50.0000     0.3855
    7.000     0.000   1.000764   0.032001   0.007180   0.039181  -0.000000   0.000000  -0.688375  -0.000000  -0.000000   50.0000     0.3809
    7.500     0.000   1.043216   0.034760   0.007433   0.042193  -0.000000   0.000000  -0.709151  -0.000000  -0.000000   50.0000     0.3766
    8.000     0.000   1.085524   0.037622   0.007708   0.045330  -0.000000   0.000000  -0.729792  -0.000000  -0.000000   50.0000     0.3728
    8.500     0.000   1.127682   0.040584   0.008009   0.048593  -0.000000   0.000000  -0.750292  -0.000000  -0.000000   50.0000     0.3692
    9.000     0.000   1.169684   0.043645   0.008335   0.051980  -0.000000   0.000000  -0.770646  -0.000000  -0.000000   50.0000     0.3660
    9.500     0.000   1.211525   0.046801   0.008678   0.055479  -0.000000   0.000000  -0.790847  -0.000000  -0.000000   50.0000     0.3629
   10.000     0.000   1.253198   0.050052   0.009047   0.059100  -0.000000   0.000000  -0.810890  -0.000000  -0.000000   50.0000     0.3601
   10.500     0.000   1.294698   0.053395   0.009442   0.062838  -0.000000   0.000000  -0.830769  -0.000000  -0.000000   50.0000     0.3575
   11.000     0.000   1.336019   0.056828   0.009862   0.066690  -0.000000   0.000000  -0.850478  -0.000000  -0.000000   50.0000     0.3551
   11.500     0.000   1.377156   0.060348   0.010314   0.070662  -0.000000   0.000000  -0.870012  -0.000000  -0.000000   50.0000     0.3528
   12.000     0.000   1.418104   0.063953   0.010826   0.074778  -0.000000   0.000000  -0.889370  -0.000000  -0.000000   50.0000     0.3507
   12.500     0.000   1.458856   0.067639   0.011393   0.079032  -0.000000   0.000000  -0.908544  -0.000000  -0.000000   50.0000     0.3488
   13.000     0.000   1.499407   0.071406   0.012001   0.083407  -0.000000   0.000000  -0.927529  -0.000000  -0.000000   50.0000     0.3469
   13.500     0.000   1.539752   0.075249   0.012659   0.087909  -0.000000   0.000000  -0.946321  -0.000000  -0.000000   50.0000     0.3452
   14.000     0.000   1.579887   0.079167   0.013419   0.092586  -0.000000   0.000000  -0.964919  -0.000000  -0.000000   50.0000     0.3436
   14.500     0.000   1.619805   0.083156   0.014351   0.097507  -0.000000   0.000000  -0.983330  -0.000000  -0.000000   50.0000     0.3421


