xflr5 v6.61

Plane name :        TaperPlane0.5
Polar name :        T1-50.0 m/s-VLM2
Freestream speed :  50.000 m/s


   alpha      Beta       CL          CDi        CDv        CD         CY         Cl         Cm         Cn        Cni       QInf        XCP
   -5.000     0.000  -0.042573   0.000067   0.007378   0.007446  -0.000000   0.000000  -0.145989   0.000000   0.000000   50.0000    -2.0812
   -4.500     0.000   0.001292   0.000015   0.007060   0.007074   0.000000  -0.000000  -0.164026  -0.000000  -0.000000   50.0000    76.9921
   -4.000     0.000   0.045166   0.000083   0.006712   0.006795   0.000000  -0.000000  -0.182079  -0.000000  -0.000000   50.0000     2.4424
   -3.500     0.000   0.089044   0.000274   0.006314   0.006588   0.000000  -0.000000  -0.200140  -0.000000  -0.000000   50.0000     1.3607
   -3.000     0.000   0.132917   0.000586   0.005986   0.006572   0.000000  -0.000000  -0.218202  -0.000000  -0.000000   50.0000     0.9930
   -2.500     0.000   0.176780   0.001020   0.005765   0.006785   0.000000  -0.000000  -0.236259  -0.000000  -0.000000   50.0000     0.8079
   -2.000     0.000   0.220627   0.001576   0.005574   0.007150   0.000000  -0.000000  -0.254307  -0.000000  -0.000000   50.0000     0.6963
   -1.500     0.000   0.264450   0.002253   0.005471   0.007724   0.000000  -0.000000  -0.272342  -0.000000  -0.000000   50.0000     0.6218
   -1.000     0.000   0.308243   0.003052   0.005494   0.008546   0.000000  -0.000000  -0.290358  -0.000000  -0.000000   50.0000     0.5684
   -0.500     0.000   0.352000   0.003972   0.005543   0.009515   0.000000  -0.000000  -0.308351   0.000000  -0.000000   50.0000     0.5284
    0.000     0.000   0.395714   0.005012   0.005619   0.010631   0.000000  -0.000000  -0.326317   0.000000  -0.000000   50.0000     0.4972
    0.500     0.000   0.439378   0.006172   0.005690   0.011862   0.000000  -0.000000  -0.344249   0.000000  -0.000000   50.0000     0.4723
    1.000     0.000   0.482987   0.007452   0.005778   0.013230   0.000000  -0.000000  -0.362143   0.000000  -0.000000   50.0000     0.4518
    1.500     0.000   0.526533   0.008850   0.005855   0.014705   0.000000  -0.000000  -0.379994   0.000000   0.000000   50.0000     0.4348
    2.000     0.000   0.570011   0.010366   0.005939   0.016306   0.000000  -0.000000  -0.397795   0.000000   0.000000   50.0000     0.4204
    2.500     0.000   0.613414   0.011999   0.006032   0.018031   0.000000  -0.000000  -0.415541   0.000000   0.000000   50.0000     0.4081
    3.000     0.000   0.656735   0.013748   0.006115   0.019863   0.000000  -0.000000  -0.433227   0.000000   0.000000   50.0000     0.3974
    3.500     0.000   0.699968   0.015612   0.006207   0.021818   0.000000  -0.000000  -0.450848   0.000000   0.000000   50.0000     0.3880
    4.000     0.000   0.743107   0.017589   0.006309   0.023898   0.000000  -0.000000  -0.468399   0.000000   0.000000   50.0000     0.3798
    4.500     0.000   0.786146   0.019679   0.006423   0.026102   0.000000  -0.000000  -0.485873   0.000000   0.000000   50.0000     0.3725
    5.000     0.000   0.829078   0.021879   0.006532   0.028411   0.000000  -0.000000  -0.503267   0.000000   0.000000   50.0000     0.3660
    5.500     0.000   0.871897   0.024190   0.006660   0.030850   0.000000  -0.000000  -0.520574   0.000000   0.000000   50.0000     0.3601
    6.000     0.000   0.914597   0.026608   0.006808   0.033416   0.000000  -0.000000  -0.537790   0.000000   0.000000   50.0000     0.3548
    6.500     0.000   0.957172   0.029133   0.006991   0.036124   0.000000  -0.000000  -0.554912   0.000000   0.000000   50.0000     0.3500
    7.000     0.000   0.999616   0.031763   0.007218   0.038981   0.000000  -0.000000  -0.571934   0.000000   0.000000   50.0000     0.3456
    7.500     0.000   1.041922   0.034496   0.007473   0.041969   0.000000  -0.000000  -0.588850   0.000000   0.000000   50.0000     0.3416
    8.000     0.000   1.084086   0.037330   0.007745   0.045075   0.000000  -0.000000  -0.605656   0.000000   0.000000   50.0000     0.3379
    8.500     0.000   1.126100   0.040263   0.008046   0.048309   0.000000  -0.000000  -0.622347   0.000000   0.000000   50.0000     0.3346
    9.000     0.000   1.167959   0.043294   0.008374   0.051668   0.000000  -0.000000  -0.638919   0.000000   0.000000   50.0000     0.3314
    9.500     0.000   1.209658   0.046420   0.008713   0.055133   0.000000  -0.000000  -0.655365   0.000000   0.000000   50.0000     0.3286
   10.000     0.000   1.251190   0.049639   0.009080   0.058719   0.000000  -0.000000  -0.671682   0.000000   0.000000   50.0000     0.3259
   10.500     0.000   1.292550   0.052948   0.009476   0.062424   0.000000  -0.000000  -0.687865   0.000000   0.000000   50.0000     0.3234
   11.000     0.000   1.333733   0.056347   0.009893   0.066240   0.000000  -0.000000  -0.703909   0.000000   0.000000   50.0000     0.3211
   11.500     0.000   1.374732   0.059831   0.010344   0.070176   0.000000  -0.000000  -0.719810   0.000000   0.000000   50.0000     0.3190
   12.000     0.000   1.415542   0.063399   0.010859   0.074258   0.000000  -0.000000  -0.735567   0.000000   0.000000   50.0000     0.3170
   12.500     0.000   1.456158   0.067049   0.011436   0.078485   0.000000  -0.000000  -0.751175   0.000000   0.000000   50.0000     0.3151
   13.000     0.000   1.496575   0.070777   0.012057   0.082834   0.000000  -0.000000  -0.766628   0.000000   0.000000   50.0000     0.3133
   13.500     0.000   1.536787   0.074581   0.012703   0.087284  -0.000000  -0.000000  -0.781921   0.000000   0.000000   50.0000     0.3117
   14.000     0.000   1.576790   0.078459   0.013419   0.091878  -0.000000  -0.000000  -0.797054   0.000000   0.000000   50.0000     0.3101
   14.500     0.000   1.616577   0.082407   0.014244   0.096651  -0.000000  -0.000000  -0.812026   0.000000   0.000000   50.0000     0.3087
   15.000     0.000   1.656145   0.086423   0.015317   0.101740  -0.000000  -0.000000  -0.826850   0.000000   0.000000   50.0000     0.3073


