xflr5 v6.61

Plane name :        TaperPlane0.9
Polar name :        T1-50.0 m/s-VLM2
Freestream speed :  50.000 m/s


   alpha      Beta       CL          CDi        CDv        CD         CY         Cl         Cm         Cn        Cni       QInf        XCP
   -5.000     0.000  -0.039019   0.000073   0.007369   0.007442   0.000000  -0.000000  -0.117804  -0.000000   0.000000   50.0000    -2.2396
   -4.500     0.000   0.003885   0.000037   0.007052   0.007088  -0.000000   0.000000  -0.129456   0.000000  -0.000000   50.0000    24.6994
   -4.000     0.000   0.046798   0.000119   0.006711   0.006830  -0.000000   0.000000  -0.141116   0.000000  -0.000000   50.0000     2.2333
   -3.500     0.000   0.089713   0.000321   0.006309   0.006630  -0.000000   0.000000  -0.152780   0.000000   0.000000   50.0000     1.2603
   -3.000     0.000   0.132623   0.000643   0.005993   0.006636  -0.000000   0.000000  -0.164442   0.000000   0.000000   50.0000     0.9170
   -2.500     0.000   0.175524   0.001084   0.005776   0.006861  -0.000000   0.000000  -0.176099   0.000000   0.000000   50.0000     0.7415
   -2.000     0.000   0.218407   0.001645   0.005575   0.007220  -0.000000   0.000000  -0.187750   0.000000   0.000000   50.0000     0.6349
   -1.500     0.000   0.261267   0.002325   0.005488   0.007813  -0.000000   0.000000  -0.199390   0.000000   0.000000   50.0000     0.5633
   -1.000     0.000   0.304098   0.003124   0.005514   0.008638  -0.000000   0.000000  -0.211016   0.000000   0.000000   50.0000     0.5120
   -0.500     0.000   0.346892   0.004042   0.005565   0.009607  -0.000000   0.000000  -0.222626  -0.000000   0.000000   50.0000     0.4733
    0.000     0.000   0.389644   0.005078   0.005632   0.010710  -0.000000   0.000000  -0.234216  -0.000000   0.000000   50.0000     0.4431
    0.500     0.000   0.432347   0.006231   0.005705   0.011936  -0.000000   0.000000  -0.245784  -0.000000   0.000000   50.0000     0.4189
    1.000     0.000   0.474996   0.007502   0.005779   0.013280  -0.000000   0.000000  -0.257325  -0.000000   0.000000   50.0000     0.3991
    1.500     0.000   0.517582   0.008889   0.005860   0.014748  -0.000000   0.000000  -0.268836  -0.000000   0.000000   50.0000     0.3826
    2.000     0.000   0.560101   0.010391   0.005937   0.016328  -0.000000   0.000000  -0.280313  -0.000000   0.000000   50.0000     0.3686
    2.500     0.000   0.602546   0.012008   0.006025   0.018033  -0.000000   0.000000  -0.291754  -0.000000   0.000000   50.0000     0.3566
    3.000     0.000   0.644911   0.013739   0.006113   0.019852  -0.000000   0.000000  -0.303155  -0.000000   0.000000   50.0000     0.3461
    3.500     0.000   0.687189   0.015582   0.006198   0.021780  -0.000000   0.000000  -0.314511  -0.000000   0.000000   50.0000     0.3370
    4.000     0.000   0.729375   0.017536   0.006299   0.023835  -0.000000   0.000000  -0.325821  -0.000000  -0.000000   50.0000     0.3290
    4.500     0.000   0.771461   0.019601   0.006405   0.026007  -0.000000   0.000000  -0.337079  -0.000000  -0.000000   50.0000     0.3219
    5.000     0.000   0.813443   0.021775   0.006520   0.028295  -0.000000   0.000000  -0.348284  -0.000000  -0.000000   50.0000     0.3155
    5.500     0.000   0.855314   0.024056   0.006646   0.030702  -0.000000   0.000000  -0.359432  -0.000000   0.000000   50.0000     0.3097
    6.000     0.000   0.897068   0.026443   0.006796   0.033239   0.000000   0.000000  -0.370520  -0.000000   0.000000   50.0000     0.3045
    6.500     0.000   0.938699   0.028934   0.006982   0.035916   0.000000   0.000000  -0.381545  -0.000000   0.000000   50.0000     0.2998
    7.000     0.000   0.980201   0.031528   0.007203   0.038731   0.000000   0.000000  -0.392504  -0.000000  -0.000000   50.0000     0.2955
    7.500     0.000   1.021569   0.034223   0.007447   0.041670   0.000000   0.000000  -0.403393  -0.000000  -0.000000   50.0000     0.2916
    8.000     0.000   1.062795   0.037017   0.007719   0.044736   0.000000   0.000000  -0.414210  -0.000000  -0.000000   50.0000     0.2880
    8.500     0.000   1.103875   0.039909   0.008020   0.047929   0.000000   0.000000  -0.424951  -0.000000   0.000000   50.0000     0.2847
    9.000     0.000   1.144804   0.042895   0.008336   0.051231   0.000000   0.000000  -0.435612  -0.000000   0.000000   50.0000     0.2816
    9.500     0.000   1.185574   0.045975   0.008671   0.054646   0.000000   0.000000  -0.446192  -0.000000  -0.000000   50.0000     0.2788
   10.000     0.000   1.226181   0.049146   0.009035   0.058182   0.000000   0.000000  -0.456687  -0.000000  -0.000000   50.0000     0.2762
   10.500     0.000   1.266619   0.052406   0.009423   0.061829   0.000000   0.000000  -0.467094  -0.000000  -0.000000   50.0000     0.2737
   11.000     0.000   1.306882   0.055753   0.009842   0.065594   0.000000   0.000000  -0.477410  -0.000000  -0.000000   50.0000     0.2714
   11.500     0.000   1.346966   0.059184   0.010322   0.069506   0.000000   0.000000  -0.487634  -0.000000  -0.000000   50.0000     0.2693
   12.000     0.000   1.386864   0.062697   0.010856   0.073553   0.000000   0.000000  -0.497764  -0.000000  -0.000000   50.0000     0.2673
   12.500     0.000   1.426573   0.066289   0.011431   0.077721   0.000000   0.000000  -0.507795  -0.000000  -0.000000   50.0000     0.2655
   13.000     0.000   1.466085   0.069959   0.012037   0.081995   0.000000   0.000000  -0.517723  -0.000000   0.000000   50.0000     0.2637
   13.500     0.000   1.505396   0.073703   0.012712   0.086414   0.000000   0.000000  -0.527550  -0.000000  -0.000000   50.0000     0.2621
   14.000     0.000   1.544502   0.077518   0.013498   0.091016   0.000000   0.000000  -0.537275  -0.000000  -0.000000   50.0000     0.2605
   14.500     0.000   1.583397   0.081403   0.014553   0.095956   0.000000   0.000000  -0.546907  -0.000000   0.000000   50.0000     0.2591
   15.000     0.000   1.622076   0.085354   0.016289   0.101643   0.000000   0.000000  -0.556474  -0.000000  -0.000000   50.0000     0.2577


