xflr5 v6.61

Plane name :        Twist 0.5
Polar name :        T1-50.0 m/s-VLM2
Freestream speed :  50.000 m/s


   alpha      Beta       CL          CDi        CDv        CD         CY         Cl         Cm         Cn        Cni       QInf        XCP
   -5.000     0.000  -0.019299   0.000070   0.007224   0.007294   0.000000  -0.000000  -0.116511  -0.000000  -0.000000   50.0000    -4.7041
   -4.500     0.000   0.023271   0.000100   0.006899   0.006999   0.000000  -0.000000  -0.126958  -0.000000  -0.000000   50.0000     4.2478
   -4.000     0.000   0.065846   0.000248   0.006539   0.006787  -0.000000   0.000000  -0.137412   0.000000   0.000000   50.0000     1.6237
   -3.500     0.000   0.108421   0.000515   0.006154   0.006668  -0.000000   0.000000  -0.147867   0.000000   0.000000   50.0000     1.0604
   -3.000     0.000   0.150990   0.000900   0.005900   0.006800  -0.000000   0.000000  -0.158320   0.000000   0.000000   50.0000     0.8147
   -2.500     0.000   0.193545   0.001404   0.005684   0.007088  -0.000000   0.000000  -0.168768   0.000000   0.000000   50.0000     0.6771
   -2.000     0.000   0.236081   0.002026   0.005528   0.007555  -0.000000   0.000000  -0.179208   0.000000   0.000000   50.0000     0.5891
   -1.500     0.000   0.278592   0.002767   0.005504   0.008271  -0.000000   0.000000  -0.189638   0.000000   0.000000   50.0000     0.5280
   -1.000     0.000   0.321070   0.003626   0.005541   0.009167  -0.000000   0.000000  -0.200055  -0.000000   0.000000   50.0000     0.4830
   -0.500     0.000   0.363510   0.004603   0.005603   0.010205  -0.000000   0.000000  -0.210456  -0.000000   0.000000   50.0000     0.4486
    0.000     0.000   0.405905   0.005696   0.005668   0.011364  -0.000000   0.000000  -0.220838  -0.000000   0.000000   50.0000     0.4214
    0.500     0.000   0.448249   0.006906   0.005745   0.012652  -0.000000   0.000000  -0.231199  -0.000000   0.000000   50.0000     0.3994
    1.000     0.000   0.490535   0.008233   0.005821   0.014054  -0.000000   0.000000  -0.241536  -0.000000   0.000000   50.0000     0.3812
    1.500     0.000   0.532759   0.009674   0.005896   0.015570  -0.000000   0.000000  -0.251844  -0.000000   0.000000   50.0000     0.3659
    2.000     0.000   0.574912   0.011230   0.005981   0.017211  -0.000000   0.000000  -0.262121  -0.000000   0.000000   50.0000     0.3528
    2.500     0.000   0.616989   0.012899   0.006064   0.018963  -0.000000   0.000000  -0.272364  -0.000000   0.000000   50.0000     0.3416
    3.000     0.000   0.658985   0.014680   0.006152   0.020832  -0.000000   0.000000  -0.282570  -0.000000   0.000000   50.0000     0.3318
    3.500     0.000   0.700891   0.016573   0.006239   0.022812  -0.000000   0.000000  -0.292735  -0.000000   0.000000   50.0000     0.3232
    4.000     0.000   0.742704   0.018576   0.006343   0.024919  -0.000000   0.000000  -0.302857  -0.000000   0.000000   50.0000     0.3156
    4.500     0.000   0.784416   0.020688   0.006448   0.027136  -0.000000   0.000000  -0.312933  -0.000000   0.000000   50.0000     0.3088
    5.000     0.000   0.826021   0.022907   0.006570   0.029477  -0.000000   0.000000  -0.322959  -0.000000  -0.000000   50.0000     0.3027
    5.500     0.000   0.867513   0.025233   0.006700   0.031933  -0.000000   0.000000  -0.332933  -0.000000   0.000000   50.0000     0.2972
    6.000     0.000   0.908887   0.027663   0.006860   0.034523  -0.000000   0.000000  -0.342853  -0.000000   0.000000   50.0000     0.2922
    6.500     0.000   0.950137   0.030196   0.007060   0.037256  -0.000000   0.000000  -0.352715  -0.000000   0.000000   50.0000     0.2877
    7.000     0.000   0.991256   0.032830   0.007290   0.040120  -0.000000   0.000000  -0.362517  -0.000000   0.000000   50.0000     0.2836
    7.500     0.000   1.032239   0.035564   0.007545   0.043109  -0.000000   0.000000  -0.372255  -0.000000   0.000000   50.0000     0.2798
    8.000     0.000   1.073080   0.038395   0.007831   0.046226  -0.000000   0.000000  -0.381928  -0.000000   0.000000   50.0000     0.2764
    8.500     0.000   1.113773   0.041323   0.008136   0.049458  -0.000000   0.000000  -0.391531  -0.000000  -0.000000   50.0000     0.2731
    9.000     0.000   1.154313   0.044344   0.008456   0.052800  -0.000000   0.000000  -0.401063  -0.000000  -0.000000   50.0000     0.2702
    9.500     0.000   1.194694   0.047457   0.008804   0.056261  -0.000000   0.000000  -0.410520  -0.000000   0.000000   50.0000     0.2674
   10.000     0.000   1.234911   0.050659   0.009177   0.059836  -0.000000   0.000000  -0.419900  -0.000000   0.000000   50.0000     0.2649
   10.500     0.000   1.274957   0.053949   0.009576   0.063526  -0.000000   0.000000  -0.429201  -0.000000  -0.000000   50.0000     0.2625
   11.000     0.000   1.314829   0.057325   0.010023   0.067347  -0.000000   0.000000  -0.438420  -0.000000   0.000000   50.0000     0.2603
   11.500     0.000   1.354519   0.060783   0.010530   0.071312  -0.000000   0.000000  -0.447556  -0.000000   0.000000   50.0000     0.2582
   12.000     0.000   1.394023   0.064321   0.011085   0.075406  -0.000000   0.000000  -0.456605  -0.000000   0.000000   50.0000     0.2563
   12.500     0.000   1.433337   0.067937   0.011672   0.079609  -0.000000   0.000000  -0.465565  -0.000000   0.000000   50.0000     0.2545
   13.000     0.000   1.472454   0.071629   0.012311   0.083940  -0.000000   0.000000  -0.474434  -0.000000   0.000000   50.0000     0.2528
   13.500     0.000   1.511369   0.075394   0.013046   0.088439  -0.000000   0.000000  -0.483213  -0.000000   0.000000   50.0000     0.2512
   14.000     0.000   1.550078   0.079228   0.014000   0.093228  -0.000000   0.000000  -0.491906  -0.000000   0.000000   50.0000     0.2497
   14.500     0.000   1.588576   0.083131   0.015483   0.098614  -0.000000   0.000000  -0.500532  -0.000000  -0.000000   50.0000     0.2482


